SandboxData_C2S7_20210305/C2S7N04102/scenario_005/case.raw
0,100.0,33,0,1,60.0
GRID OPTIMIZATION COMPETITION CHALLENGE 2
INPUT DATA FILES ARE RAW JSON CON
1,'St Lucie',22.2,3,6,1,1,1.01999998,76.528008,1.05,0.95,1.1,0.9
2,'St Lucie',22.2,2,6,1,1,1.01999998,76.534223,1.05,0.95,1.1,0.9
3,'Seminole (~1',22.2,2,6,1,1,1.01999998,65.486303,1.05,0.95,1.1,0.9
4,'Seminole (~1',22.2,2,6,1,1,1.01999998,65.486303,1.05,0.95,1.1,0.9
5,'St Johns R~1',22.2,2,6,1,1,1.01999998,63.148876,1.05,0.95,1.1,0.9
6,'St Johns R~1',22.2,2,6,1,1,1.01999998,63.148876,1.05,0.95,1.1,0.9
7,'Anclote',22.2,2,6,1,1,1.01999998,70.25648,1.05,0.95,1.1,0.9
8,'Anclote',22.2,2,6,1,1,1.01999998,70.25648,1.05,0.95,1.1,0.9
9,'Stanton En~1',15.6,2,6,1,1,1.01999998,71.08516,1.05,0.95,1.1,0.9
10,'Stanton En~1',22.2,2,6,1,1,1.01999998,70.258113,1.05,0.95,1.1,0.9
11,'Stanton En~1',22.2,2,6,1,1,1.01999998,70.172954,1.05,0.95,1.1,0.9
12,'Stanton En~1',12.8,2,6,1,1,1.01999998,70.214973,1.05,0.95,1.1,0.9
13,'Big Bend',22.2,2,6,1,1,1.01999998,65.26368,1.05,0.95,1.1,0.9
14,'Big Bend',22.2,1,6,1,1,1.01684749,58.976464,1.05,0.95,1.1,0.9
15,'Big Bend',22.2,1,6,1,1,1.01684749,58.976464,1.05,0.95,1.1,0.9
16,'Big Bend',22.2,1,6,1,1,1.01684749,58.976464,1.05,0.95,1.1,0.9
17,'Big Bend',22.2,1,6,1,1,1.01684749,58.976464,1.05,0.95,1.1,0.9
18,'Crystal Ri~1',22.2,2,6,1,1,1.01999998,74.490296,1.05,0.95,1.1,0.9
19,'Crystal Ri~1',22.2,1,6,1,1,1.01609993,66.658835,1.05,0.95,1.1,0.9
20,'Crystal Ri~1',22.2,2,6,1,1,1.01999998,74.458003,1.05,0.95,1.1,0.9
21,'Crystal Ri~1',22.2,2,6,1,1,1.01999998,74.447109,1.05,0.95,1.1,0.9
22,'Crystal Ri~1',22.2,2,6,1,1,1.01999998,74.54881,1.05,0.95,1.1,0.9
23,'Cape Canav~1',22.2,1,6,1,1,1.01968241,62.201344,1.05,0.95,1.1,0.9
24,'Cape Canav~1',22.2,1,6,1,1,1.01968241,62.201344,1.05,0.95,1.1,0.9
25,'C D McInto~1',12.8,1,6,1,1,0.99490577,57.532719,1.05,0.95,1.1,0.9
26,'C D McInto~1',8.32,1,6,1,1,0.99490577,57.532719,1.05,0.95,1.1,0.9
27,'C D McInto~1',12.8,1,6,1,1,0.99490577,57.532719,1.05,0.95,1.1,0.9
28,'C D McInto~1',15.6,1,6,1,1,0.99490577,57.532719,1.05,0.95,1.1,0.9
29,'C D McInto~1',15.6,1,6,1,1,0.99490577,57.532719,1.05,0.95,1.1,0.9
30,'C D McInto~1',12.8,1,6,1,1,0.99490577,57.532719,1.05,0.95,1.1,0.9
31,'Riviera',15.6,2,6,1,1,1.01999998,61.81104,1.05,0.95,1.1,0.9
32,'Riviera',15.6,2,6,1,1,1.01999998,61.81104,1.05,0.95,1.1,0.9
33,'West Count~1',22.2,2,6,1,1,1.01999998,70.191388,1.05,0.95,1.1,0.9
34,'West Count~1',22.2,2,6,1,1,1.01999998,71.755741,1.05,0.95,1.1,0.9
35,'West Count~1',15.6,1,6,1,1,1.01713455,65.234215,1.05,0.95,1.1,0.9
36,'West Count~1',15.6,2,6,1,1,1.01999998,71.980693,1.05,0.95,1.1,0.9
37,'West Count~1',15.6,1,6,1,1,1.01713455,65.234215,1.05,0.95,1.1,0.9
38,'West Count~1',15.6,1,6,1,1,1.01713455,65.234215,1.05,0.95,1.1,0.9
39,'West Count~1',15.6,2,6,1,1,1.01999998,71.980693,1.05,0.95,1.1,0.9
40,'West Count~1',15.6,1,6,1,1,1.01713455,65.234215,1.05,0.95,1.1,0.9
41,'Northside ~1',22.2,1,6,1,1,1.01978898,60.83422,1.05,0.95,1.1,0.9
42,'Northside ~1',22.2,1,6,1,1,1.01978898,60.83422,1.05,0.95,1.1,0.9
43,'Northside ~1',22.2,2,6,1,1,1.01999998,62.356144,1.05,0.95,1.1,0.9
44,'Northside ~1',22.2,2,6,1,1,1.01999998,62.356144,1.05,0.95,1.1,0.9
45,'Northside ~1',22.2,2,6,1,1,1.01999998,61.535285,1.05,0.95,1.1,0.9
46,'Northside ~1',15.6,2,6,1,1,1.01999998,65.130799,1.05,0.95,1.1,0.9
47,'Northside ~1',15.6,2,6,1,1,1.01999998,65.130799,1.05,0.95,1.1,0.9
48,'Cedar Bay ~1',15.6,2,6,1,1,1.01999998,62.81753,1.05,0.95,1.1,0.9
49,'Deerhaven ~1',8.32,2,6,1,1,1.01999998,61.332736,1.05,0.95,1.1,0.9
50,'Deerhaven ~1',8.32,2,6,1,1,1.01999998,61.332736,1.05,0.95,1.1,0.9
51,'Deerhaven ~1',12.8,2,6,1,1,1.01999998,62.531973,1.05,0.95,1.1,0.9
52,'Deerhaven ~1',12.8,2,6,1,1,1.01999998,63.102772,1.05,0.95,1.1,0.9
53,'Deerhaven ~1',15.6,2,6,1,1,1.01999998,63.140318,1.05,0.95,1.1,0.9
54,'Treasure C~1',15.6,2,6,1,1,1.01999998,74.593473,1.05,0.95,1.1,0.9
55,'Treasure C~1',15.6,2,6,1,1,1.01999998,74.27315,1.05,0.95,1.1,0.9
56,'P L Bartow',8.32,2,6,1,1,1.01999998,65.427878,1.05,0.95,1.1,0.9
57,'P L Bartow',8.32,2,6,1,1,1.01999998,65.427878,1.05,0.95,1.1,0.9
58,'P L Bartow',8.32,2,6,1,1,1.01999998,65.427878,1.05,0.95,1.1,0.9
59,'P L Bartow',8.32,2,6,1,1,1.01999998,65.427878,1.05,0.95,1.1,0.9
60,'P L Bartow',22.2,2,6,1,1,1.01999998,65.703804,1.05,0.95,1.1,0.9
61,'P L Bartow',15.6,1,6,1,1,1.00237417,58.55444,1.05,0.95,1.1,0.9
62,'P L Bartow',15.6,1,6,1,1,1.00237417,58.55444,1.05,0.95,1.1,0.9
63,'P L Bartow',15.6,2,6,1,1,1.01999998,65.022008,1.05,0.95,1.1,0.9
64,'P L Bartow',15.6,2,6,1,1,1.01999998,65.022008,1.05,0.95,1.1,0.9
65,'Osceola (FL)',15.6,1,6,1,1,1.02036929,57.559411,1.05,0.95,1.1,0.9
66,'Osceola (FL)',15.6,1,6,1,1,1.02036929,57.559411,1.05,0.95,1.1,0.9
67,'Osceola (FL)',15.6,1,6,1,1,1.02036929,57.559411,1.05,0.95,1.1,0.9
68,'Santa Rosa~1',15.6,2,6,1,1,1.01999998,56.023804,1.05,0.95,1.1,0.9
69,'Santa Rosa~1',12.8,2,6,1,1,1.01999998,55.09875,1.05,0.95,1.1,0.9
70,'DeSoto Cou~1',15.6,2,6,1,1,1.01999998,66.846563,1.05,0.95,1.1,0.9
71,'DeSoto Cou~1',15.6,1,6,1,1,1.02082086,61.867334,1.05,0.95,1.1,0.9
72,'Midulla Ge~1',15.6,1,6,1,1,1.02527106,60.561238,1.05,0.95,1.1,0.9
73,'Midulla Ge~1',15.6,1,6,1,1,1.02527106,60.561238,1.05,0.95,1.1,0.9
74,'Midulla Ge~1',15.6,1,6,1,1,1.02527106,60.561238,1.05,0.95,1.1,0.9
75,'Arvah B Ho~1',22.2,2,6,1,1,1.01999998,65.433199,1.05,0.95,1.1,0.9
76,'Arvah B Ho~1',22.2,2,6,1,1,1.01999998,65.433199,1.05,0.95,1.1,0.9
77,'Arvah B Ho~1',8.32,2,6,1,1,1.01999998,64.833112,1.05,0.95,1.1,0.9
78,'Arvah B Ho~1',12.8,2,6,1,1,1.01999998,65.432809,1.05,0.95,1.1,0.9
79,'Arvah B Ho~1',15.6,2,6,1,1,1.01999998,66.345985,1.05,0.95,1.1,0.9
80,'Arvah B Ho~1',15.6,2,6,1,1,1.01999998,66.302511,1.05,0.95,1.1,0.9
81,'Oleander P~1',15.6,2,6,1,1,1.01999998,68.192486,1.05,0.95,1.1,0.9
82,'Oleander P~1',15.6,1,6,1,1,1.01751196,61.52435,1.05,0.95,1.1,0.9
83,'Oleander P~1',15.6,1,6,1,1,1.01751196,61.52435,1.05,0.95,1.1,0.9
84,'Oleander P~1',15.6,1,6,1,1,1.01751196,61.52435,1.05,0.95,1.1,0.9
85,'Oleander P~1',15.6,1,6,1,1,1.01751196,61.52435,1.05,0.95,1.1,0.9
86,'Tiger Bay',15.6,1,6,1,1,1.02230537,58.163856,1.05,0.95,1.1,0.9
87,'Tiger Bay',12.8,1,6,1,1,1.02230537,58.163856,1.05,0.95,1.1,0.9
88,'Polk',12.8,2,6,1,1,1.01999998,68.76267,1.05,0.95,1.1,0.9
89,'Polk',12.8,1,6,1,1,1.02606189,60.889081,1.05,0.95,1.1,0.9
90,'Polk',15.6,2,6,1,1,1.01999998,67.955116,1.05,0.95,1.1,0.9
91,'Polk',12.8,2,6,1,1,1.01999998,67.972752,1.05,0.95,1.1,0.9
92,'Polk',12.8,2,6,1,1,1.01999998,67.972752,1.05,0.95,1.1,0.9
93,'Polk',12.8,1,6,1,1,1.02606189,60.889081,1.05,0.95,1.1,0.9
94,'Osprey Ene~1',15.6,2,6,1,1,1.01999998,66.554743,1.05,0.95,1.1,0.9
95,'Osprey Ene~1',15.6,2,6,1,1,1.01999998,66.599119,1.05,0.95,1.1,0.9
96,'Osprey Ene~1',15.6,1,6,1,1,1.00178826,60.086158,1.05,0.95,1.1,0.9
97,'H L Culbre~1',12.8,1,6,1,1,1.01670539,58.615454,1.05,0.95,1.1,0.9
98,'H L Culbre~1',12.8,1,6,1,1,1.01670539,58.615454,1.05,0.95,1.1,0.9
99,'H L Culbre~1',12.8,1,6,1,1,1.01670539,58.615454,1.05,0.95,1.1,0.9
100,'H L Culbre~1',15.6,1,6,1,1,1.01670539,58.615454,1.05,0.95,1.1,0.9
101,'H L Culbre~1',22.2,1,6,1,1,1.01670539,58.615454,1.05,0.95,1.1,0.9
102,'H L Culbre~1',22.2,1,6,1,1,1.01670539,58.615454,1.05,0.95,1.1,0.9
103,'H L Culbre~1',22.2,1,6,1,1,1.01670539,58.615454,1.05,0.95,1.1,0.9
104,'H L Culbre~1',22.2,1,6,1,1,1.01670539,58.615454,1.05,0.95,1.1,0.9
105,'H L Culbre~1',22.2,1,6,1,1,1.01670539,58.615454,1.05,0.95,1.1,0.9
106,'H L Culbre~1',12.8,1,6,1,1,1.01670539,58.615454,1.05,0.95,1.1,0.9
107,'H L Culbre~1',12.8,1,6,1,1,1.01670539,58.615454,1.05,0.95,1.1,0.9
108,'H L Culbre~1',12.8,1,6,1,1,1.01670539,58.615454,1.05,0.95,1.1,0.9
109,'H L Culbre~1',12.8,1,6,1,1,1.01670539,58.615454,1.05,0.95,1.1,0.9
110,'Fort Myers',22.2,2,6,1,1,1.01999998,65.151508,1.05,0.95,1.1,0.9
111,'Fort Myers',22.2,1,6,1,1,1.03041124,58.926241,1.05,0.95,1.1,0.9
112,'Fort Myers',22.2,1,6,1,1,1.03041124,58.926241,1.05,0.95,1.1,0.9
113,'Fort Myers',22.2,1,6,1,1,1.03041124,58.926241,1.05,0.95,1.1,0.9
114,'Fort Myers',12.8,1,6,1,1,1.03041124,58.926241,1.05,0.95,1.1,0.9
115,'Fort Myers',12.8,2,6,1,1,1.01999998,66.194061,1.05,0.95,1.1,0.9
116,'Fort Myers',15.6,1,6,1,1,1.03041124,58.926241,1.05,0.95,1.1,0.9
117,'Fort Myers',15.6,2,6,1,1,1.01999998,65.795226,1.05,0.95,1.1,0.9
118,'Fort Myers',15.6,1,6,1,1,1.03041124,58.926241,1.05,0.95,1.1,0.9
119,'Fort Myers',15.6,2,6,1,1,1.01999998,65.795226,1.05,0.95,1.1,0.9
120,'Fort Myers',15.6,1,6,1,1,1.03041124,58.926241,1.05,0.95,1.1,0.9
121,'Fort Myers',15.6,1,6,1,1,1.03041124,58.926241,1.05,0.95,1.1,0.9
122,'Fort Myers',12.8,2,6,1,1,1.01999998,65.894885,1.05,0.95,1.1,0.9
123,'Fort Myers',22.2,1,6,1,1,1.03041124,58.926241,1.05,0.95,1.1,0.9
124,'Fort Myers',22.2,1,6,1,1,1.03041124,58.926241,1.05,0.95,1.1,0.9
125,'Fort Myers',22.2,1,6,1,1,1.03041124,58.926241,1.05,0.95,1.1,0.9
126,'Fort Myers',22.2,1,6,1,1,1.03041124,58.926241,1.05,0.95,1.1,0.9
127,'Fort Myers',22.2,1,6,1,1,1.03041124,58.926241,1.05,0.95,1.1,0.9
128,'Fort Myers',22.2,1,6,1,1,1.03041124,58.926241,1.05,0.95,1.1,0.9
129,'Fort Myers',22.2,1,6,1,1,1.03041124,58.926241,1.05,0.95,1.1,0.9
130,'Fort Myers',22.2,1,6,1,1,1.03041124,58.926241,1.05,0.95,1.1,0.9
131,'Sanford',15.6,2,6,1,1,1.01999998,72.31555,1.05,0.95,1.1,0.9
132,'Sanford',12.8,1,6,1,1,1.01490486,65.344229,1.05,0.95,1.1,0.9
133,'Sanford',22.2,2,6,1,1,1.01999998,73.078359,1.05,0.95,1.1,0.9
134,'Sanford',22.2,2,6,1,1,1.01999998,73.078359,1.05,0.95,1.1,0.9
135,'Sanford',15.6,2,6,1,1,1.01999998,72.31555,1.05,0.95,1.1,0.9
136,'Sanford',15.6,2,6,1,1,1.01999998,72.31555,1.05,0.95,1.1,0.9
137,'Sanford',15.6,2,6,1,1,1.01999998,72.31555,1.05,0.95,1.1,0.9
138,'Sanford',15.6,2,6,1,1,1.01999998,72.31555,1.05,0.95,1.1,0.9
139,'Sanford',15.6,2,6,1,1,1.01999998,72.31555,1.05,0.95,1.1,0.9
140,'Sanford',15.6,2,6,1,1,1.01999998,72.31555,1.05,0.95,1.1,0.9
141,'Sanford',15.6,2,6,1,1,1.01999998,72.31555,1.05,0.95,1.1,0.9
142,'Manatee',22.2,1,6,1,1,1.02002227,60.403912,1.05,0.95,1.1,0.9
143,'Manatee',22.2,2,6,1,1,1.01999998,68.178477,1.05,0.95,1.1,0.9
144,'Manatee',22.2,2,6,1,1,1.01999998,67.75564,1.05,0.95,1.1,0.9
145,'Manatee',15.6,1,6,1,1,1.02002227,60.403912,1.05,0.95,1.1,0.9
146,'Manatee',15.6,2,6,1,1,1.01999998,67.331616,1.05,0.95,1.1,0.9
147,'Manatee',15.6,1,6,1,1,1.02002227,60.403912,1.05,0.95,1.1,0.9
148,'Manatee',15.6,2,6,1,1,1.01999998,67.331616,1.05,0.95,1.1,0.9
149,'Martin',15.6,1,6,1,1,1.01475871,67.200927,1.05,0.95,1.1,0.9
150,'Martin',15.6,1,6,1,1,1.01475871,67.200927,1.05,0.95,1.1,0.9
151,'Martin',15.6,2,6,1,1,1.00999999,74.208503,1.05,0.95,1.1,0.9
152,'Martin',15.6,1,6,1,1,1.01475871,67.200927,1.05,0.95,1.1,0.9
153,'Martin',22.2,2,6,1,1,1.00999999,72.128901,1.05,0.95,1.1,0.9
154,'Martin',22.2,1,6,1,1,1.01475871,67.200927,1.05,0.95,1.1,0.9
155,'Martin',22.2,2,6,1,1,1.00999999,74.681582,1.05,0.95,1.1,0.9
156,'Martin',15.6,1,6,1,1,1.01475871,67.200927,1.05,0.95,1.1,0.9
157,'Martin',15.6,2,6,1,1,1.00999999,74.253575,1.05,0.95,1.1,0.9
158,'Martin',15.6,2,6,1,1,1.00999999,74.253575,1.05,0.95,1.1,0.9
159,'Martin',15.6,1,6,1,1,1.01475871,67.200927,1.05,0.95,1.1,0.9
160,'Martin',15.6,2,6,1,1,1.00999999,74.208503,1.05,0.95,1.1,0.9
161,'Martin',15.6,1,6,1,1,1.01475871,67.200927,1.05,0.95,1.1,0.9
162,'Turkey Point',22.2,2,6,1,1,1.01999998,73.439799,1.05,0.95,1.1,0.9
163,'Turkey Point',22.2,2,6,1,1,1.01999998,72.897496,1.05,0.95,1.1,0.9
164,'Turkey Point',22.2,1,6,1,1,1.02119136,65.550261,1.05,0.95,1.1,0.9
165,'Turkey Point',22.2,1,6,1,1,1.02119136,65.550261,1.05,0.95,1.1,0.9
166,'Turkey Point',15.6,2,6,1,1,1.01999998,72.463902,1.05,0.95,1.1,0.9
167,'Turkey Point',15.6,2,6,1,1,1.01999998,72.463902,1.05,0.95,1.1,0.9
168,'Turkey Point',15.6,2,6,1,1,1.01999998,72.463902,1.05,0.95,1.1,0.9
169,'Turkey Point',15.6,2,6,1,1,1.01999998,72.463902,1.05,0.95,1.1,0.9
170,'Lauderdale',8.32,2,6,1,1,1.01999998,68.229833,1.05,0.95,1.1,0.9
171,'Lauderdale',8.32,2,6,1,1,1.01999998,68.229833,1.05,0.95,1.1,0.9
172,'Lauderdale',8.32,2,6,1,1,1.01999998,68.229833,1.05,0.95,1.1,0.9
173,'Lauderdale',8.32,2,6,1,1,1.01999998,68.229833,1.05,0.95,1.1,0.9
174,'Lauderdale',8.32,2,6,1,1,1.01999998,68.229833,1.05,0.95,1.1,0.9
175,'Lauderdale',8.32,2,6,1,1,1.01999998,68.229833,1.05,0.95,1.1,0.9
176,'Lauderdale',8.32,2,6,1,1,1.01999998,68.229833,1.05,0.95,1.1,0.9
177,'Lauderdale',8.32,2,6,1,1,1.01999998,68.229833,1.05,0.95,1.1,0.9
178,'Lauderdale',8.32,2,6,1,1,1.01999998,68.229833,1.05,0.95,1.1,0.9
179,'Lauderdale',8.32,2,6,1,1,1.01999998,68.229833,1.05,0.95,1.1,0.9
180,'Lauderdale',8.32,2,6,1,1,1.01999998,68.229833,1.05,0.95,1.1,0.9
181,'Lauderdale',8.32,2,6,1,1,1.01999998,68.229833,1.05,0.95,1.1,0.9
182,'Lauderdale',8.32,2,6,1,1,1.01999998,68.229833,1.05,0.95,1.1,0.9
183,'Lauderdale',8.32,2,6,1,1,1.01999998,68.229833,1.05,0.95,1.1,0.9
184,'Lauderdale',8.32,2,6,1,1,1.01999998,68.229833,1.05,0.95,1.1,0.9
185,'Lauderdale',12.8,2,6,1,1,1.01999998,68.108686,1.05,0.95,1.1,0.9
186,'Lauderdale',12.8,2,6,1,1,1.01999998,68.108686,1.05,0.95,1.1,0.9
187,'Lauderdale',15.6,2,6,1,1,1.01999998,68.116145,1.05,0.95,1.1,0.9
188,'Lauderdale',15.6,2,6,1,1,1.01999998,68.116145,1.05,0.95,1.1,0.9
189,'Lauderdale',15.6,2,6,1,1,1.01999998,68.116145,1.05,0.95,1.1,0.9
190,'Lauderdale',15.6,2,6,1,1,1.01999998,68.116145,1.05,0.95,1.1,0.9
191,'Lauderdale',8.32,2,6,1,1,1.01999998,68.229833,1.05,0.95,1.1,0.9
192,'Lauderdale',8.32,2,6,1,1,1.01999998,68.229833,1.05,0.95,1.1,0.9
193,'Lauderdale',8.32,2,6,1,1,1.01999998,68.229833,1.05,0.95,1.1,0.9
194,'Lauderdale',8.32,2,6,1,1,1.01999998,68.229833,1.05,0.95,1.1,0.9
195,'Lauderdale',8.32,2,6,1,1,1.01999998,68.229833,1.05,0.95,1.1,0.9
196,'Lauderdale',8.32,2,6,1,1,1.01999998,68.229833,1.05,0.95,1.1,0.9
197,'Lauderdale',8.32,2,6,1,1,1.01999998,68.229833,1.05,0.95,1.1,0.9
198,'Lauderdale',8.32,2,6,1,1,1.01999998,68.229833,1.05,0.95,1.1,0.9
199,'Lauderdale',8.32,2,6,1,1,1.01999998,68.229833,1.05,0.95,1.1,0.9
200,'J D Kennedy',12.8,1,6,1,1,1.0321027,58.150803,1.05,0.95,1.1,0.9
...
0 / END OF BUS DATA BEGIN LOAD DATA
1000,'11',1,6,1,11.05,3.32,0.0,0.0,0.0,0.0,1,1,0
1001,'11',1,6,1,3.48,1.04,0.0,0.0,0.0,0.0,1,1,0
1002,'11',1,6,1,43.92,12.08,0.0,0.0,0.0,0.0,1,1,0
1003,'11',1,6,1,7.16,1.97,0.0,0.0,0.0,0.0,1,1,0
1004,'11',1,6,1,18.17,5.45,0.0,0.0,0.0,0.0,1,1,0
1005,'11',1,6,1,3.18,0.88,0.0,0.0,0.0,0.0,1,1,0
1006,'11',1,6,1,9.0,2.48,0.0,0.0,0.0,0.0,1,1,0
1007,'11',1,6,1,24.44,6.72,0.0,0.0,0.0,0.0,1,1,0
1008,'11',1,6,1,26.1,7.18,0.0,0.0,0.0,0.0,1,1,0
1009,'11',1,6,1,45.06,12.39,0.0,0.0,0.0,0.0,1,1,0
1010,'11',1,6,1,1.6,0.48,0.0,0.0,0.0,0.0,1,1,0
1011,'11',1,6,1,22.2,6.1,0.0,0.0,0.0,0.0,1,1,0
1012,'11',1,6,1,1.72,0.47,0.0,0.0,0.0,0.0,1,1,0
1013,'11',1,6,1,40.94,12.28,0.0,0.0,0.0,0.0,1,1,0
1014,'11',1,6,1,20.21,5.56,0.0,0.0,0.0,0.0,1,1,0
1015,'11',1,6,1,2.56,0.7,0.0,0.0,0.0,0.0,1,1,0
1016,'11',1,6,1,22.15,6.09,0.0,0.0,0.0,0.0,1,1,0
1017,'11',1,6,1,6.9,1.9,0.0,0.0,0.0,0.0,1,1,0
1018,'11',1,6,1,33.25,9.97,0.0,0.0,0.0,0.0,1,1,0
1019,'11',1,6,1,16.09,4.42,0.0,0.0,0.0,0.0,1,1,0
1020,'11',1,6,1,19.63,5.89,0.0,0.0,0.0,0.0,1,1,0
1021,'11',1,6,1,20.36,6.11,0.0,0.0,0.0,0.0,1,1,0
1022,'11',1,6,1,28.97,7.97,0.0,0.0,0.0,0.0,1,1,0
1023,'11',1,6,1,14.55,4.0,0.0,0.0,0.0,0.0,1,1,0
1024,'11',1,6,1,35.04,10.51,0.0,0.0,0.0,0.0,1,1,0
1025,'11',1,6,1,3.36,0.93,0.0,0.0,0.0,0.0,1,1,0
1026,'11',1,6,1,48.71,13.39,0.0,0.0,0.0,0.0,1,1,0
1027,'11',1,6,1,7.01,1.93,0.0,0.0,0.0,0.0,1,1,0
1028,'11',1,6,1,39.77,10.94,0.0,0.0,0.0,0.0,1,1,0
1029,'11',1,6,1,17.91,4.93,0.0,0.0,0.0,0.0,1,1,0
1030,'11',1,6,1,1.01,0.3,0.0,0.0,0.0,0.0,1,1,0
1031,'11',1,6,1,19.94,5.48,0.0,0.0,0.0,0.0,1,1,0
1032,'11',1,6,1,35.46,9.75,0.0,0.0,0.0,0.0,1,1,0
1033,'11',1,6,1,12.25,3.68,0.0,0.0,0.0,0.0,1,1,0
1034,'11',1,6,1,40.77,12.23,0.0,0.0,0.0,0.0,1,1,0
1035,'11',1,7,2,18.8,5.64,0.0,0.0,0.0,0.0,1,1,0
1036,'11',1,7,2,13.23,3.64,0.0,0.0,0.0,0.0,1,1,0
1037,'11',1,6,1,33.0,9.08,0.0,0.0,0.0,0.0,1,1,0
1038,'11',1,6,1,38.88,10.69,0.0,0.0,0.0,0.0,1,1,0
1039,'11',1,6,1,29.52,8.12,0.0,0.0,0.0,0.0,1,1,0
1040,'11',1,6,1,39.4,11.82,0.0,0.0,0.0,0.0,1,1,0
1041,'11',1,6,1,45.28,13.58,0.0,0.0,0.0,0.0,1,1,0
1042,'11',1,6,1,18.45,5.54,0.0,0.0,0.0,0.0,1,1,0
1043,'11',1,6,1,21.27,6.38,0.0,0.0,0.0,0.0,1,1,0
1044,'11',1,6,1,45.28,12.45,0.0,0.0,0.0,0.0,1,1,0
1045,'11',1,6,1,39.4,11.82,0.0,0.0,0.0,0.0,1,1,0
1046,'11',1,6,1,26.61,7.98,0.0,0.0,0.0,0.0,1,1,0
1047,'11',1,6,1,53.05,14.59,0.0,0.0,0.0,0.0,1,1,0
1048,'11',1,6,1,44.74,12.3,0.0,0.0,0.0,0.0,1,1,0
1049,'11',1,6,1,35.91,9.88,0.0,0.0,0.0,0.0,1,1,0
1050,'11',1,6,1,17.93,5.38,0.0,0.0,0.0,0.0,1,1,0
1051,'11',1,6,1,27.42,8.23,0.0,0.0,0.0,0.0,1,1,0
1052,'11',1,6,1,40.74,12.22,0.0,0.0,0.0,0.0,1,1,0
1053,'11',1,6,1,47.6,13.09,0.0,0.0,0.0,0.0,1,1,0
1054,'11',1,6,1,18.31,5.49,0.0,0.0,0.0,0.0,1,1,0
1055,'11',1,6,1,39.07,11.72,0.0,0.0,0.0,0.0,1,1,0
1056,'11',1,6,1,32.65,8.98,0.0,0.0,0.0,0.0,1,1,0
1057,'11',1,6,1,40.73,12.22,0.0,0.0,0.0,0.0,1,1,0
1058,'11',1,6,1,10.11,2.78,0.0,0.0,0.0,0.0,1,1,0
1059,'11',1,6,1,23.9,6.57,0.0,0.0,0.0,0.0,1,1,0
1060,'11',1,6,1,40.73,12.22,0.0,0.0,0.0,0.0,1,1,0
1061,'11',1,6,1,40.73,12.22,0.0,0.0,0.0,0.0,1,1,0
1062,'11',1,6,1,40.73,12.22,0.0,0.0,0.0,0.0,1,1,0
1063,'11',1,6,1,9.5,2.61,0.0,0.0,0.0,0.0,1,1,0
1064,'11',1,6,1,9.5,2.61,0.0,0.0,0.0,0.0,1,1,0
1065,'11',1,6,1,33.9,9.32,0.0,0.0,0.0,0.0,1,1,0
1066,'11',1,6,1,33.9,9.32,0.0,0.0,0.0,0.0,1,1,0
1067,'11',1,6,1,14.0,3.85,0.0,0.0,0.0,0.0,1,1,0
1068,'11',1,6,1,16.19,4.86,0.0,0.0,0.0,0.0,1,1,0
1069,'11',1,6,1,11.87,3.56,0.0,0.0,0.0,0.0,1,1,0
1070,'11',1,6,1,8.41,2.52,0.0,0.0,0.0,0.0,1,1,0
1071,'11',1,6,1,33.7,9.27,0.0,0.0,0.0,0.0,1,1,0
1072,'11',1,6,1,33.7,9.27,0.0,0.0,0.0,0.0,1,1,0
1073,'11',1,6,1,33.7,10.11,0.0,0.0,0.0,0.0,1,1,0
1074,'11',1,6,1,33.92,9.33,0.0,0.0,0.0,0.0,1,1,0
1075,'11',1,6,1,33.92,10.17,0.0,0.0,0.0,0.0,1,1,0
1076,'11',1,6,1,42.6,12.78,0.0,0.0,0.0,0.0,1,1,0
1077,'11',1,6,1,42.6,11.72,0.0,0.0,0.0,0.0,1,1,0
1078,'11',1,6,1,42.6,12.78,0.0,0.0,0.0,0.0,1,1,0
1079,'11',1,6,1,42.6,11.72,0.0,0.0,0.0,0.0,1,1,0
1080,'11',1,6,1,42.6,11.72,0.0,0.0,0.0,0.0,1,1,0
1081,'11',1,6,1,42.6,11.72,0.0,0.0,0.0,0.0,1,1,0
1082,'11',1,6,1,42.6,12.78,0.0,0.0,0.0,0.0,1,1,0
1083,'11',1,6,1,42.6,11.72,0.0,0.0,0.0,0.0,1,1,0
1084,'11',1,6,1,19.98,5.49,0.0,0.0,0.0,0.0,1,1,0
1085,'11',1,6,1,45.9,12.62,0.0,0.0,0.0,0.0,1,1,0
1086,'11',1,6,1,45.44,13.63,0.0,0.0,0.0,0.0,1,1,0
1087,'11',1,6,1,30.86,8.49,0.0,0.0,0.0,0.0,1,1,0
1088,'11',1,6,1,22.54,6.2,0.0,0.0,0.0,0.0,1,1,0
1089,'11',1,6,1,10.76,2.96,0.0,0.0,0.0,0.0,1,1,0
1090,'11',1,6,1,25.31,6.96,0.0,0.0,0.0,0.0,1,1,0
1091,'11',1,6,1,42.6,11.72,0.0,0.0,0.0,0.0,1,1,0
1092,'11',1,6,1,42.6,11.72,0.0,0.0,0.0,0.0,1,1,0
1093,'11',1,6,1,42.6,11.72,0.0,0.0,0.0,0.0,1,1,0
1094,'11',1,6,1,12.26,3.68,0.0,0.0,0.0,0.0,1,1,0
1095,'11',1,6,1,45.95,12.64,0.0,0.0,0.0,0.0,1,1,0
1096,'11',1,6,1,30.35,9.1,0.0,0.0,0.0,0.0,1,1,0
1097,'11',1,6,1,35.59,10.68,0.0,0.0,0.0,0.0,1,1,0
1098,'11',1,6,1,29.03,7.98,0.0,0.0,0.0,0.0,1,1,0
1099,'11',1,6,1,6.52,1.79,0.0,0.0,0.0,0.0,1,1,0
1100,'11',1,6,1,21.07,6.32,0.0,0.0,0.0,0.0,1,1,0
1101,'11',1,6,1,32.19,9.66,0.0,0.0,0.0,0.0,1,1,0
1102,'11',1,6,1,33.43,10.03,0.0,0.0,0.0,0.0,1,1,0
1103,'11',1,6,1,45.01,12.38,0.0,0.0,0.0,0.0,1,1,0
1104,'11',1,6,1,49.33,13.57,0.0,0.0,0.0,0.0,1,1,0
1105,'11',1,6,1,40.79,11.22,0.0,0.0,0.0,0.0,1,1,0
1106,'11',1,6,1,40.79,12.24,0.0,0.0,0.0,0.0,1,1,0
1107,'11',1,6,1,40.79,12.24,0.0,0.0,0.0,0.0,1,1,0
1108,'11',1,6,1,40.79,12.24,0.0,0.0,0.0,0.0,1,1,0
1109,'11',1,6,1,16.86,5.06,0.0,0.0,0.0,0.0,1,1,0
1110,'11',1,6,1,48.45,13.32,0.0,0.0,0.0,0.0,1,1,0
1111,'11',1,6,1,48.86,13.44,0.0,0.0,0.0,0.0,1,1,0
1112,'11',1,6,1,43.86,13.16,0.0,0.0,0.0,0.0,1,1,0
1113,'11',1,6,1,42.34,12.7,0.0,0.0,0.0,0.0,1,1,0
1114,'11',1,6,1,28.19,7.75,0.0,0.0,0.0,0.0,1,1,0
1115,'11',1,6,1,46.07,12.67,0.0,0.0,0.0,0.0,1,1,0
1116,'11',1,6,1,32.53,9.76,0.0,0.0,0.0,0.0,1,1,0
1117,'11',1,6,1,8.08,2.42,0.0,0.0,0.0,0.0,1,1,0
1118,'11',1,6,1,8.34,2.29,0.0,0.0,0.0,0.0,1,1,0
1119,'11',1,6,1,57.7,17.31,0.0,0.0,0.0,0.0,1,1,0
1120,'11',1,6,1,49.22,13.54,0.0,0.0,0.0,0.0,1,1,0
1121,'11',1,6,1,15.92,4.77,0.0,0.0,0.0,0.0,1,1,0
1122,'11',1,6,1,26.36,7.91,0.0,0.0,0.0,0.0,1,1,0
1123,'11',1,6,1,38.63,10.62,0.0,0.0,0.0,0.0,1,1,0
1124,'11',1,6,1,37.68,10.36,0.0,0.0,0.0,0.0,1,1,0
1125,'11',1,6,1,49.8,13.69,0.0,0.0,0.0,0.0,1,1,0
1126,'11',1,6,1,49.55,13.63,0.0,0.0,0.0,0.0,1,1,0
1127,'11',1,6,1,8.71,2.4,0.0,0.0,0.0,0.0,1,1,0
1128,'11',1,6,1,24.1,7.23,0.0,0.0,0.0,0.0,1,1,0
1129,'11',1,6,1,37.75,10.38,0.0,0.0,0.0,0.0,1,1,0
1130,'11',1,6,1,37.75,11.33,0.0,0.0,0.0,0.0,1,1,0
1131,'11',1,6,1,38.89,11.67,0.0,0.0,0.0,0.0,1,1,0
1132,'11',1,6,1,27.11,8.13,0.0,0.0,0.0,0.0,1,1,0
1133,'11',1,6,1,35.39,10.62,0.0,0.0,0.0,0.0,1,1,0
1134,'11',1,6,1,27.18,8.15,0.0,0.0,0.0,0.0,1,1,0
1135,'11',1,6,1,34.29,10.29,0.0,0.0,0.0,0.0,1,1,0
1136,'11',1,6,1,31.77,8.74,0.0,0.0,0.0,0.0,1,1,0
1137,'11',1,6,1,26.11,7.83,0.0,0.0,0.0,0.0,1,1,0
1138,'11',1,6,1,40.8,11.22,0.0,0.0,0.0,0.0,1,1,0
1139,'11',1,6,1,10.79,3.24,0.0,0.0,0.0,0.0,1,1,0
1140,'11',1,6,1,29.33,8.8,0.0,0.0,0.0,0.0,1,1,0
1141,'11',1,6,1,30.61,9.18,0.0,0.0,0.0,0.0,1,1,0
1142,'11',1,6,1,13.23,3.97,0.0,0.0,0.0,0.0,1,1,0
1143,'11',1,6,1,42.71,11.75,0.0,0.0,0.0,0.0,1,1,0
1144,'11',1,6,1,38.02,11.41,0.0,0.0,0.0,0.0,1,1,0
1145,'11',1,6,1,5.63,1.55,0.0,0.0,0.0,0.0,1,1,0
1146,'11',1,6,1,4.11,1.13,0.0,0.0,0.0,0.0,1,1,0
1147,'11',1,6,1,38.64,11.59,0.0,0.0,0.0,0.0,1,1,0
1148,'11',1,6,1,40.0,12.0,0.0,0.0,0.0,0.0,1,1,0
1149,'11',1,6,1,35.57,9.78,0.0,0.0,0.0,0.0,1,1,0
1150,'11',1,6,1,12.97,3.89,0.0,0.0,0.0,0.0,1,1,0
1151,'11',1,6,1,22.08,6.07,0.0,0.0,0.0,0.0,1,1,0
1152,'11',1,6,1,36.66,11.0,0.0,0.0,0.0,0.0,1,1,0
1153,'11',1,6,1,43.4,11.94,0.0,0.0,0.0,0.0,1,1,0
1154,'11',1,6,1,41.97,12.59,0.0,0.0,0.0,0.0,1,1,0
1155,'11',1,6,1,40.4,12.12,0.0,0.0,0.0,0.0,1,1,0
1156,'11',1,6,1,22.02,6.61,0.0,0.0,0.0,0.0,1,1,0
1157,'11',1,6,1,37.81,11.34,0.0,0.0,0.0,0.0,1,1,0
1158,'11',1,6,1,26.32,7.24,0.0,0.0,0.0,0.0,1,1,0
1159,'11',1,6,1,36.62,10.99,0.0,0.0,0.0,0.0,1,1,0
1160,'11',1,6,1,7.45,2.23,0.0,0.0,0.0,0.0,1,1,0
1161,'11',1,6,1,6.86,1.89,0.0,0.0,0.0,0.0,1,1,0
1162,'11',1,6,1,15.78,4.34,0.0,0.0,0.0,0.0,1,1,0
1163,'11',1,6,1,33.92,9.33,0.0,0.0,0.0,0.0,1,1,0
1164,'11',1,6,1,37.5,10.31,0.0,0.0,0.0,0.0,1,1,0
1165,'11',1,6,1,35.88,9.87,0.0,0.0,0.0,0.0,1,1,0
1166,'11',1,6,1,2.42,0.66,0.0,0.0,0.0,0.0,1,1,0
1167,'11',1,6,1,10.03,3.01,0.0,0.0,0.0,0.0,1,1,0
1168,'11',1,6,1,39.93,10.98,0.0,0.0,0.0,0.0,1,1,0
1169,'11',1,6,1,31.3,8.61,0.0,0.0,0.0,0.0,1,1,0
1170,'11',1,6,1,41.85,11.51,0.0,0.0,0.0,0.0,1,1,0
1171,'11',1,6,1,32.45,8.92,0.0,0.0,0.0,0.0,1,1,0
1172,'11',1,6,1,32.45,9.74,0.0,0.0,0.0,0.0,1,1,0
1173,'11',1,6,1,39.23,11.77,0.0,0.0,0.0,0.0,1,1,0
1174,'11',1,6,1,29.37,8.08,0.0,0.0,0.0,0.0,1,1,0
1175,'11',1,6,1,20.88,6.26,0.0,0.0,0.0,0.0,1,1,0
1176,'11',1,6,1,14.57,4.01,0.0,0.0,0.0,0.0,1,1,0
1177,'11',1,6,1,30.7,8.44,0.0,0.0,0.0,0.0,1,1,0
1178,'11',1,6,1,3.95,1.19,0.0,0.0,0.0,0.0,1,1,0
1179,'11',1,6,1,39.93,11.98,0.0,0.0,0.0,0.0,1,1,0
1180,'11',1,6,1,31.33,8.62,0.0,0.0,0.0,0.0,1,1,0
1181,'11',1,6,1,42.05,12.61,0.0,0.0,0.0,0.0,1,1,0
1182,'11',1,6,1,28.6,7.86,0.0,0.0,0.0,0.0,1,1,0
1183,'11',1,6,1,37.9,11.37,0.0,0.0,0.0,0.0,1,1,0
1184,'11',1,6,1,38.31,10.54,0.0,0.0,0.0,0.0,1,1,0
1185,'11',1,6,1,17.16,4.72,0.0,0.0,0.0,0.0,1,1,0
1186,'11',1,6,1,6.7,1.84,0.0,0.0,0.0,0.0,1,1,0
1187,'11',1,6,1,12.32,3.7,0.0,0.0,0.0,0.0,1,1,0
1188,'11',1,6,1,13.74,3.78,0.0,0.0,0.0,0.0,1,1,0
1189,'11',1,6,1,3.58,1.07,0.0,0.0,0.0,0.0,1,1,0
1190,'11',1,6,1,6.44,1.93,0.0,0.0,0.0,0.0,1,1,0
1191,'11',1,6,1,5.11,1.53,0.0,0.0,0.0,0.0,1,1,0
1192,'11',1,6,1,3.12,0.86,0.0,0.0,0.0,0.0,1,1,0
1193,'11',1,6,1,3.89,1.07,0.0,0.0,0.0,0.0,1,1,0
1194,'11',1,6,1,3.23,0.89,0.0,0.0,0.0,0.0,1,1,0
1195,'11',1,6,1,14.67,4.03,0.0,0.0,0.0,0.0,1,1,0
1196,'11',1,6,1,19.81,5.94,0.0,0.0,0.0,0.0,1,1,0
1197,'11',1,6,1,19.81,5.94,0.0,0.0,0.0,0.0,1,1,0
1198,'11',1,6,1,2.73,0.82,0.0,0.0,0.0,0.0,1,1,0
1199,'11',1,6,1,9.56,2.87,0.0,0.0,0.0,0.0,1,1,0
...
0 / END OF LOAD DATA BEGIN FIXED SHUNT DATA
0 / END OF FIXED SHUNT DATA BEGIN GENERATOR DATA
1,'G1',1078.722,46.254,523.1,-360.0,1.02,0,100.0,0.0,1.0,0.0,0.0,1.0,1,100.0,1080.0,987.0,1,1.0,0,1.0,0,1.0,0,1.0,0,1.0
2,'G2',1079.575,46.36,523.1,-360.0,1.02,0,100.0,0.0,1.0,0.0,0.0,1.0,1,100.0,1080.0,981.0,1,1.0,0,1.0,0,1.0,0,1.0,0,1.0
3,'G1',350.207,-27.806,356.4,-245.3,1.02,0,100.0,0.0,1.0,0.0,0.0,1.0,1,100.0,735.9,350.0,1,1.0,0,1.0,0,1.0,0,1.0,0,1.0
4,'G2',350.207,-27.806,356.4,-245.3,1.02,0,100.0,0.0,1.0,0.0,0.0,1.0,1,100.0,735.9,350.0,1,1.0,0,1.0,0,1.0,0,1.0,0,1.0
5,'G1',200.191,2.62,328.9,-226.3,1.02,0,100.0,0.0,1.0,0.0,0.0,1.0,1,100.0,679.0,200.0,1,1.0,0,1.0,0,1.0,0,1.0,0,1.0
6,'G2',200.191,2.62,328.9,-226.3,1.02,0,100.0,0.0,1.0,0.0,0.0,1.0,1,100.0,679.0,200.0,1,1.0,0,1.0,0,1.0,0,1.0,0,1.0
7,'G1',554.849,83.039,269.4,-185.4,1.02,0,100.0,0.0,1.0,0.0,0.0,1.0,1,100.0,556.2,90.0,1,1.0,0,1.0,0,1.0,0,1.0,0,1.0
8,'G2',554.849,83.039,269.4,-185.4,1.02,0,100.0,0.0,1.0,0.0,0.0,1.0,1,100.0,556.2,80.0,1,1.0,0,1.0,0,1.0,0,1.0,0,1.0
9,'G1',192.159,14.142,125.9,-67.7,1.02,0,100.0,0.0,1.0,0.0,0.0,1.0,1,100.0,203.2,155.0,1,1.0,0,1.0,0,1.0,0,1.0,0,1.0
10,'G2',370.53,28.439,225.0,-154.8,1.02,0,100.0,0.0,1.0,0.0,0.0,1.0,1,100.0,464.5,95.0,1,1.0,0,1.0,0,1.0,0,1.0,0,1.0
11,'G3',365.53,27.959,225.0,-154.8,1.02,0,100.0,0.0,1.0,0.0,0.0,1.0,1,100.0,464.5,90.0,1,1.0,0,1.0,0,1.0,0,1.0,0,1.0
12,'G4',122.749,8.246,80.4,-43.3,1.02,0,100.0,0.0,1.0,0.0,0.0,1.0,1,100.0,129.8,68.79,1,1.0,0,1.0,0,1.0,0,1.0,0,1.0
13,'G1',61.849,3.422,38.4,-20.7,1.02,0,100.0,0.0,1.0,0.0,0.0,1.0,1,100.0,62.0,14.0,1,1.0,0,1.0,0,1.0,0,1.0,0,1.0
14,'G2',0.0,0.0,215.8,-148.5,1.02,0,100.0,0.0,1.0,0.0,0.0,1.0,0,100.0,445.5,190.0,1,1.0,0,1.0,0,1.0,0,1.0,0,1.0
15,'G3',0.0,0.0,215.8,-148.5,1.02,0,100.0,0.0,1.0,0.0,0.0,1.0,0,100.0,445.5,185.0,1,1.0,0,1.0,0,1.0,0,1.0,0,1.0
16,'G4',0.0,0.0,215.8,-148.5,1.02,0,100.0,0.0,1.0,0.0,0.0,1.0,0,100.0,445.5,185.0,1,1.0,0,1.0,0,1.0,0,1.0,0,1.0
17,'G5',0.0,0.0,235.4,-162.0,1.02,0,100.0,0.0,1.0,0.0,0.0,1.0,0,100.0,486.0,157.0,1,1.0,0,1.0,0,1.0,0,1.0,0,1.0
18,'G1',730.0,60.72,358.0,-246.4,1.02,0,100.0,0.0,1.0,0.0,0.0,1.0,1,100.0,739.2,225.0,1,1.0,0,1.0,0,1.0,0,1.0,0,1.0
19,'G2',0.0,0.0,358.0,-246.4,1.02,0,100.0,0.0,1.0,0.0,0.0,1.0,0,100.0,739.2,225.0,1,1.0,0,1.0,0,1.0,0,1.0,0,1.0
20,'G3',880.0,73.788,431.2,-296.8,1.02,0,100.0,0.0,1.0,0.0,0.0,1.0,1,100.0,890.4,311.64,1,1.0,0,1.0,0,1.0,0,1.0,0,1.0
21,'G4',439.429,36.453,213.3,-146.8,1.02,0,100.0,0.0,1.0,0.0,0.0,1.0,1,100.0,440.5,100.0,1,1.0,0,1.0,0,1.0,0,1.0,0,1.0
22,'G5',522.527,43.848,253.7,-174.6,1.02,0,100.0,0.0,1.0,0.0,0.0,1.0,1,100.0,523.8,120.0,1,1.0,0,1.0,0,1.0,0,1.0,0,1.0
23,'G1',0.0,0.0,182.0,-182.0,1.02,0,100.0,0.0,1.0,0.0,0.0,1.0,0,100.0,402.0,80.4,1,1.0,0,1.0,0,1.0,0,1.0,0,1.0
24,'G2',0.0,0.0,182.0,-182.0,1.02,0,100.0,0.0,1.0,0.0,0.0,1.0,0,100.0,402.0,80.4,1,1.0,0,1.0,0,1.0,0,1.0,0,1.0
25,'G1',0.0,0.0,61.0,-42.0,1.02,0,100.0,0.0,1.0,0.0,0.0,1.0,0,100.0,126.0,30.0,1,1.0,0,1.0,0,1.0,0,1.0,0,1.0
26,'G2',0.0,0.0,12.9,-8.9,1.02,0,100.0,0.0,1.0,0.0,0.0,1.0,0,100.0,26.6,3.0,1,1.0,0,1.0,0,1.0,0,1.0,0,1.0
27,'G3',0.0,0.0,50.1,-34.5,1.02,0,100.0,0.0,1.0,0.0,0.0,1.0,0,100.0,103.5,25.0,1,1.0,0,1.0,0,1.0,0,1.0,0,1.0
28,'G4',0.0,0.0,120.6,-83.0,1.02,0,100.0,0.0,1.0,0.0,0.0,1.0,0,100.0,249.0,140.0,1,1.0,0,1.0,0,1.0,0,1.0,0,1.0
29,'G5',0.0,0.0,176.2,-121.3,1.02,0,100.0,0.0,1.0,0.0,0.0,1.0,0,100.0,363.8,180.0,1,1.0,0,1.0,0,1.0,0,1.0,0,1.0
30,'G6',0.0,0.0,58.1,-40.0,1.02,0,100.0,0.0,1.0,0.0,0.0,1.0,0,100.0,120.0,120.0,1,1.0,0,1.0,0,1.0,0,1.0,0,1.0
31,'G1',64.182,-36.06,140.5,-140.5,1.02,0,100.0,0.0,1.0,0.0,0.0,1.0,1,100.0,310.4,62.08,1,1.0,0,1.0,0,1.0,0,1.0,0,1.0
32,'G2',64.182,-36.06,140.5,-140.5,1.02,0,100.0,0.0,1.0,0.0,0.0,1.0,1,100.0,310.4,62.08,1,1.0,0,1.0,0,1.0,0,1.0,0,1.0
33,'G1',353.574,21.933,326.6,-175.7,1.02,0,100.0,0.0,1.0,0.0,0.0,1.0,1,100.0,527.0,350.0,1,1.0,0,1.0,0,1.0,0,1.0,0,1.0
34,'G2',464.765,31.561,326.6,-175.7,1.02,0,100.0,0.0,1.0,0.0,0.0,1.0,1,100.0,527.0,350.0,1,1.0,0,1.0,0,1.0,0,1.0,0,1.0
35,'G3',0.0,0.0,184.7,-99.3,1.02,0,100.0,0.0,1.0,0.0,0.0,1.0,0,100.0,298.0,232.0,1,1.0,0,1.0,0,1.0,0,1.0,0,1.0
36,'G4',281.809,19.459,184.7,-99.3,1.02,0,100.0,0.0,1.0,0.0,0.0,1.0,1,100.0,298.0,232.0,1,1.0,0,1.0,0,1.0,0,1.0,0,1.0
37,'G5',0.0,0.0,184.7,-99.3,1.02,0,100.0,0.0,1.0,0.0,0.0,1.0,0,100.0,298.0,232.0,1,1.0,0,1.0,0,1.0,0,1.0,0,1.0
38,'G6',0.0,0.0,184.7,-99.3,1.02,0,100.0,0.0,1.0,0.0,0.0,1.0,0,100.0,298.0,232.0,1,1.0,0,1.0,0,1.0,0,1.0,0,1.0
39,'G7',281.809,19.459,184.7,-99.3,1.02,0,100.0,0.0,1.0,0.0,0.0,1.0,1,100.0,298.0,232.0,1,1.0,0,1.0,0,1.0,0,1.0,0,1.0
40,'G8',0.0,0.0,184.7,-99.3,1.02,0,100.0,0.0,1.0,0.0,0.0,1.0,0,100.0,298.0,232.0,1,1.0,0,1.0,0,1.0,0,1.0,0,1.0
41,'G1',0.0,0.0,30.1,-20.7,1.02,0,100.0,0.0,1.0,0.0,0.0,1.0,0,100.0,62.1,15.0,1,1.0,0,1.0,0,1.0,0,1.0,0,1.0
42,'G2',0.0,0.0,30.1,-20.7,1.02,0,100.0,0.0,1.0,0.0,0.0,1.0,0,100.0,62.1,15.0,1,1.0,0,1.0,0,1.0,0,1.0,0,1.0
43,'G3',15.017,-0.101,30.1,-20.7,1.02,0,100.0,0.0,1.0,0.0,0.0,1.0,1,100.0,62.1,15.0,1,1.0,0,1.0,0,1.0,0,1.0,0,1.0
44,'G4',15.017,-0.101,30.1,-20.7,1.02,0,100.0,0.0,1.0,0.0,0.0,1.0,1,100.0,62.1,15.0,1,1.0,0,1.0,0,1.0,0,1.0,0,1.0
45,'G5',50.159,0.463,273.0,-187.9,1.02,0,100.0,0.0,1.0,0.0,0.0,1.0,1,100.0,563.7,50.0,1,1.0,0,1.0,0,1.0,0,1.0,0,1.0
46,'G6',180.084,4.766,184.4,-99.2,1.02,0,100.0,0.0,1.0,0.0,0.0,1.0,1,100.0,297.5,180.0,1,1.0,0,1.0,0,1.0,0,1.0,0,1.0
47,'G7',180.084,4.766,184.4,-99.2,1.02,0,100.0,0.0,1.0,0.0,0.0,1.0,1,100.0,297.5,180.0,1,1.0,0,1.0,0,1.0,0,1.0,0,1.0
48,'G1',291.485,1.218,180.7,-97.2,1.02,0,100.0,0.0,1.0,0.0,0.0,1.0,1,100.0,291.6,90.0,1,1.0,0,1.0,0,1.0,0,1.0,0,1.0
49,'G1',17.595,3.871,15.2,-8.2,1.02,0,100.0,0.0,1.0,0.0,0.0,1.0,1,100.0,24.6,3.0,1,1.0,0,1.0,0,1.0,0,1.0,0,1.0
50,'G2',17.595,3.871,15.2,-8.2,1.02,0,100.0,0.0,1.0,0.0,0.0,1.0,1,100.0,24.6,3.0,1,1.0,0,1.0,0,1.0,0,1.0,0,1.0
51,'G3',65.489,10.487,46.5,-25.0,1.02,0,100.0,0.0,1.0,0.0,0.0,1.0,1,100.0,75.0,21.0,1,1.0,0,1.0,0,1.0,0,1.0,0,1.0
52,'G4',90.878,13.19,59.6,-32.0,1.02,0,100.0,0.0,1.0,0.0,0.0,1.0,1,100.0,96.1,50.0,1,1.0,0,1.0,0,1.0,0,1.0,0,1.0
53,'G5',213.713,32.389,155.4,-83.6,1.02,0,100.0,0.0,1.0,0.0,0.0,1.0,1,100.0,250.7,65.0,1,1.0,0,1.0,0,1.0,0,1.0,0,1.0
54,'G1',219.513,15.685,136.1,-73.2,1.02,0,100.0,0.0,1.0,0.0,0.0,1.0,1,100.0,219.6,80.0,1,1.0,0,1.0,0,1.0,0,1.0,0,1.0
55,'G2',191.724,13.392,118.9,-63.9,1.02,0,100.0,0.0,1.0,0.0,0.0,1.0,1,100.0,191.8,65.0,1,1.0,0,1.0,0,1.0,0,1.0,0,1.0
56,'G1',55.266,9.729,26.8,-18.5,1.02,0,100.0,0.0,1.0,0.0,0.0,1.0,1,100.0,55.4,20.0,1,1.0,0,1.0,0,1.0,0,1.0,0,1.0
57,'G2',55.266,9.729,26.8,-18.5,1.02,0,100.0,0.0,1.0,0.0,0.0,1.0,1,100.0,55.4,20.0,1,1.0,0,1.0,0,1.0,0,1.0,0,1.0
58,'G3',55.266,9.729,26.8,-18.5,1.02,0,100.0,0.0,1.0,0.0,0.0,1.0,1,100.0,55.4,20.0,1,1.0,0,1.0,0,1.0,0,1.0,0,1.0
59,'G4',55.266,9.729,26.8,-18.5,1.02,0,100.0,0.0,1.0,0.0,0.0,1.0,1,100.0,55.4,20.0,1,1.0,0,1.0,0,1.0,0,1.0,0,1.0
60,'G5',420.177,79.796,204.0,-140.4,1.02,0,100.0,0.0,1.0,0.0,0.0,1.0,1,100.0,421.2,151.63,1,1.0,0,1.0,0,1.0,0,1.0,0,1.0
61,'G6',0.0,0.0,129.0,-69.4,1.02,0,100.0,0.0,1.0,0.0,0.0,1.0,0,100.0,208.2,93.69,1,1.0,0,1.0,0,1.0,0,1.0,0,1.0
62,'G7',0.0,0.0,129.0,-69.4,1.02,0,100.0,0.0,1.0,0.0,0.0,1.0,0,100.0,208.2,93.69,1,1.0,0,1.0,0,1.0,0,1.0,0,1.0
63,'G8',207.695,40.0,129.0,-69.4,1.02,0,100.0,0.0,1.0,0.0,0.0,1.0,1,100.0,208.2,93.69,1,1.0,0,1.0,0,1.0,0,1.0,0,1.0
64,'G9',207.695,40.0,129.0,-69.4,1.02,0,100.0,0.0,1.0,0.0,0.0,1.0,1,100.0,208.2,93.69,1,1.0,0,1.0,0,1.0,0,1.0,0,1.0
65,'G1',0.0,0.0,123.9,-66.7,1.02,0,100.0,0.0,1.0,0.0,0.0,1.0,0,100.0,200.0,100.0,1,1.0,0,1.0,0,1.0,0,1.0,0,1.0
66,'G2',0.0,0.0,123.9,-66.7,1.02,0,100.0,0.0,1.0,0.0,0.0,1.0,0,100.0,200.0,100.0,1,1.0,0,1.0,0,1.0,0,1.0,0,1.0
67,'G3',0.0,0.0,123.9,-66.7,1.02,0,100.0,0.0,1.0,0.0,0.0,1.0,0,100.0,200.0,100.0,1,1.0,0,1.0,0,1.0,0,1.0,0,1.0
68,'G1',199.514,41.768,123.9,-66.7,1.02,0,100.0,0.0,1.0,0.0,0.0,1.0,1,100.0,200.0,95.0,1,1.0,0,1.0,0,1.0,0,1.0,0,1.0
69,'G2',74.318,17.46,46.2,-24.8,1.02,0,100.0,0.0,1.0,0.0,0.0,1.0,1,100.0,74.5,50.0,1,1.0,0,1.0,0,1.0,0,1.0,0,1.0
70,'G1',198.916,2.904,123.6,-66.5,1.02,0,100.0,0.0,1.0,0.0,0.0,1.0,1,100.0,199.4,100.0,1,1.0,0,1.0,0,1.0,0,1.0,0,1.0
71,'G2',0.0,0.0,123.6,-66.5,1.02,0,100.0,0.0,1.0,0.0,0.0,1.0,0,100.0,199.4,100.0,1,1.0,0,1.0,0,1.0,0,1.0,0,1.0
72,'G1',0.0,0.0,123.3,-66.3,1.02,0,100.0,0.0,1.0,0.0,0.0,1.0,0,100.0,199.0,80.0,1,1.0,0,1.0,0,1.0,0,1.0,0,1.0
73,'G2',0.0,0.0,123.3,-66.3,1.02,0,100.0,0.0,1.0,0.0,0.0,1.0,0,100.0,199.0,80.0,1,1.0,0,1.0,0,1.0,0,1.0,0,1.0
74,'G3',0.0,0.0,117.1,-63.0,1.02,0,100.0,0.0,1.0,0.0,0.0,1.0,0,100.0,189.0,45.0,1,1.0,0,1.0,0,1.0,0,1.0,0,1.0
75,'G1',59.854,-4.077,37.2,-20.0,1.02,0,100.0,0.0,1.0,0.0,0.0,1.0,1,100.0,60.0,12.0,1,1.0,0,1.0,0,1.0,0,1.0,0,1.0
76,'G2',59.854,-4.077,37.2,-20.0,1.02,0,100.0,0.0,1.0,0.0,0.0,1.0,1,100.0,60.0,12.0,1,1.0,0,1.0,0,1.0,0,1.0,0,1.0
77,'G3',26.934,-2.375,16.7,-9.0,1.02,0,100.0,0.0,1.0,0.0,0.0,1.0,1,100.0,27.0,3.0,1,1.0,0,1.0,0,1.0,0,1.0,0,1.0
78,'G4',74.818,-5.014,46.5,-25.0,1.02,0,100.0,0.0,1.0,0.0,0.0,1.0,1,100.0,75.0,30.0,1,1.0,0,1.0,0,1.0,0,1.0,0,1.0
79,'G5',258.571,-9.371,160.6,-86.4,1.02,0,100.0,0.0,1.0,0.0,0.0,1.0,1,100.0,259.2,120.0,1,1.0,0,1.0,0,1.0,0,1.0,0,1.0
80,'G6',188.408,-7.652,123.3,-66.3,1.02,0,100.0,0.0,1.0,0.0,0.0,1.0,1,100.0,198.9,70.0,1,1.0,0,1.0,0,1.0,0,1.0,0,1.0
81,'G1',198.722,11.847,123.2,-66.3,1.02,0,100.0,0.0,1.0,0.0,0.0,1.0,1,100.0,198.8,102.0,1,1.0,0,1.0,0,1.0,0,1.0,0,1.0
82,'G2',0.0,0.0,123.3,-66.3,1.02,0,100.0,0.0,1.0,0.0,0.0,1.0,0,100.0,198.9,102.0,1,1.0,0,1.0,0,1.0,0,1.0,0,1.0
83,'G3',0.0,0.0,123.3,-66.3,1.02,0,100.0,0.0,1.0,0.0,0.0,1.0,0,100.0,198.9,102.0,1,1.0,0,1.0,0,1.0,0,1.0,0,1.0
84,'G4',0.0,0.0,123.3,-66.3,1.02,0,100.0,0.0,1.0,0.0,0.0,1.0,0,100.0,198.9,102.0,1,1.0,0,1.0,0,1.0,0,1.0,0,1.0
85,'G5',0.0,0.0,123.3,-66.3,1.02,0,100.0,0.0,1.0,0.0,0.0,1.0,0,100.0,198.9,102.0,1,1.0,0,1.0,0,1.0,0,1.0,0,1.0
86,'G1',0.0,0.0,121.0,-65.1,1.02,0,100.0,0.0,1.0,0.0,0.0,1.0,0,100.0,195.2,131.0,1,1.0,0,1.0,0,1.0,0,1.0,0,1.0
87,'G2',0.0,0.0,51.4,-27.6,1.02,0,100.0,0.0,1.0,0.0,0.0,1.0,0,100.0,82.9,71.0,1,1.0,0,1.0,0,1.0,0,1.0,0,1.0
88,'G1',175.372,0.774,85.1,-58.6,1.02,0,100.0,0.0,1.0,0.0,0.0,1.0,1,100.0,175.8,89.0,1,1.0,0,1.0,0,1.0,0,1.0,0,1.0
89,'G2',0.0,0.0,85.1,-58.6,1.02,0,100.0,0.0,1.0,0.0,0.0,1.0,0,100.0,175.8,89.0,1,1.0,0,1.0,0,1.0,0,1.0,0,1.0
90,'G3',192.431,-1.134,114.5,-64.3,1.02,0,100.0,0.0,1.0,0.0,0.0,1.0,1,100.0,192.9,89.0,1,1.0,0,1.0,0,1.0,0,1.0,0,1.0
91,'G4',175.372,-1.054,109.0,-58.6,1.02,0,100.0,0.0,1.0,0.0,0.0,1.0,1,100.0,175.8,89.0,1,1.0,0,1.0,0,1.0,0,1.0,0,1.0
92,'G5',175.372,-1.054,109.0,-58.6,1.02,0,100.0,0.0,1.0,0.0,0.0,1.0,1,100.0,175.8,89.0,1,1.0,0,1.0,0,1.0,0,1.0,0,1.0
93,'G6',0.0,0.0,82.7,-44.5,1.02,0,100.0,0.0,1.0,0.0,0.0,1.0,0,100.0,133.4,33.0,1,1.0,0,1.0,0,1.0,0,1.0,0,1.0
94,'G1',259.368,52.143,161.1,-86.7,1.02,0,100.0,0.0,1.0,0.0,0.0,1.0,1,100.0,260.0,60.0,1,1.0,0,1.0,0,1.0,0,1.0,0,1.0
95,'G2',191.633,37.699,119.1,-64.0,1.02,0,100.0,0.0,1.0,0.0,0.0,1.0,1,100.0,192.1,100.0,1,1.0,0,1.0,0,1.0,0,1.0,0,1.0
96,'G3',0.0,0.0,119.1,-64.0,1.02,0,100.0,0.0,1.0,0.0,0.0,1.0,0,100.0,192.1,100.0,1,1.0,0,1.0,0,1.0,0,1.0,0,1.0
97,'10',0.0,0.0,92.0,-63.3,1.02,0,100.0,0.0,1.0,0.0,0.0,1.0,0,100.0,189.9,78.0,1,1.0,0,1.0,0,1.0,0,1.0,0,1.0
98,'11',0.0,0.0,92.0,-63.3,1.02,0,100.0,0.0,1.0,0.0,0.0,1.0,0,100.0,189.9,78.0,1,1.0,0,1.0,0,1.0,0,1.0,0,1.0
99,'12',0.0,0.0,92.0,-63.3,1.02,0,100.0,0.0,1.0,0.0,0.0,1.0,0,100.0,189.9,78.0,1,1.0,0,1.0,0,1.0,0,1.0,0,1.0
100,'13',0.0,0.0,148.4,-79.8,1.02,0,100.0,0.0,1.0,0.0,0.0,1.0,0,100.0,239.4,47.0,1,1.0,0,1.0,0,1.0,0,1.0,0,1.0
101,'G1',0.0,0.0,43.3,-23.3,1.02,0,100.0,0.0,1.0,0.0,0.0,1.0,0,100.0,69.9,14.0,1,1.0,0,1.0,0,1.0,0,1.0,0,1.0
102,'G2',0.0,0.0,43.3,-23.3,1.02,0,100.0,0.0,1.0,0.0,0.0,1.0,0,100.0,69.9,14.0,1,1.0,0,1.0,0,1.0,0,1.0,0,1.0
103,'G3',0.0,0.0,43.3,-23.3,1.02,0,100.0,0.0,1.0,0.0,0.0,1.0,0,100.0,69.9,14.0,1,1.0,0,1.0,0,1.0,0,1.0,0,1.0
104,'G4',0.0,0.0,43.3,-23.3,1.02,0,100.0,0.0,1.0,0.0,0.0,1.0,0,100.0,69.9,14.0,1,1.0,0,1.0,0,1.0,0,1.0,0,1.0
105,'G5',0.0,0.0,215.9,-148.6,1.02,0,100.0,0.0,1.0,0.0,0.0,1.0,0,100.0,445.7,52.0,1,1.0,0,1.0,0,1.0,0,1.0,0,1.0
106,'G6',0.0,0.0,92.0,-63.3,1.02,0,100.0,0.0,1.0,0.0,0.0,1.0,0,100.0,189.9,78.0,1,1.0,0,1.0,0,1.0,0,1.0,0,1.0
107,'G7',0.0,0.0,92.0,-63.3,1.02,0,100.0,0.0,1.0,0.0,0.0,1.0,0,100.0,189.9,78.0,1,1.0,0,1.0,0,1.0,0,1.0,0,1.0
108,'G8',0.0,0.0,92.0,-63.3,1.02,0,100.0,0.0,1.0,0.0,0.0,1.0,0,100.0,189.9,78.0,1,1.0,0,1.0,0,1.0,0,1.0,0,1.0
109,'G9',0.0,0.0,92.0,-63.3,1.02,0,100.0,0.0,1.0,0.0,0.0,1.0,0,100.0,189.9,78.0,1,1.0,0,1.0,0,1.0,0,1.0,0,1.0
110,'10',61.849,-4.122,30.0,-20.7,1.02,0,100.0,0.0,1.0,0.0,0.0,1.0,1,100.0,62.0,5.0,1,1.0,0,1.0,0,1.0,0,1.0,0,1.0
111,'11',0.0,0.0,30.0,-20.7,1.02,0,100.0,0.0,1.0,0.0,0.0,1.0,0,100.0,62.0,5.0,1,1.0,0,1.0,0,1.0,0,1.0,0,1.0
112,'12',0.0,0.0,30.0,-20.7,1.02,0,100.0,0.0,1.0,0.0,0.0,1.0,0,100.0,62.0,5.0,1,1.0,0,1.0,0,1.0,0,1.0,0,1.0
113,'13',0.0,0.0,30.0,-20.7,1.02,0,100.0,0.0,1.0,0.0,0.0,1.0,0,100.0,62.0,5.0,1,1.0,0,1.0,0,1.0,0,1.0,0,1.0
114,'14',0.0,0.0,112.2,-60.3,1.02,0,100.0,0.0,1.0,0.0,0.0,1.0,0,100.0,181.0,159.0,1,1.0,0,1.0,0,1.0,0,1.0,0,1.0
115,'15',180.56,-6.567,112.2,-60.3,1.02,0,100.0,0.0,1.0,0.0,0.0,1.0,1,100.0,181.0,19.0,1,1.0,0,1.0,0,1.0,0,1.0,0,1.0
116,'17',0.0,0.0,116.6,-62.7,1.02,0,100.0,0.0,1.0,0.0,0.0,1.0,0,100.0,188.2,90.0,1,1.0,0,1.0,0,1.0,0,1.0,0,1.0
117,'18',187.743,-8.279,116.6,-62.7,1.02,0,100.0,0.0,1.0,0.0,0.0,1.0,1,100.0,188.2,90.0,1,1.0,0,1.0,0,1.0,0,1.0,0,1.0
118,'19',0.0,0.0,116.6,-62.7,1.02,0,100.0,0.0,1.0,0.0,0.0,1.0,0,100.0,188.2,90.0,1,1.0,0,1.0,0,1.0,0,1.0,0,1.0
119,'20',187.743,-8.279,116.6,-62.7,1.02,0,100.0,0.0,1.0,0.0,0.0,1.0,1,100.0,188.2,90.0,1,1.0,0,1.0,0,1.0,0,1.0,0,1.0
120,'21',0.0,0.0,116.6,-62.7,1.02,0,100.0,0.0,1.0,0.0,0.0,1.0,0,100.0,188.2,90.0,1,1.0,0,1.0,0,1.0,0,1.0,0,1.0
121,'22',0.0,0.0,116.6,-62.7,1.02,0,100.0,0.0,1.0,0.0,0.0,1.0,0,100.0,188.2,90.0,1,1.0,0,1.0,0,1.0,0,1.0,0,1.0
122,'G1',155.821,-6.808,96.8,-52.1,1.02,0,100.0,0.0,1.0,0.0,0.0,1.0,1,100.0,156.2,53.46,1,1.0,0,1.0,0,1.0,0,1.0,0,1.0
123,'G2',0.0,0.0,30.0,-20.7,1.02,0,100.0,0.0,1.0,0.0,0.0,1.0,0,100.0,62.0,5.0,1,1.0,0,1.0,0,1.0,0,1.0,0,1.0
124,'G3',0.0,0.0,30.0,-20.7,1.02,0,100.0,0.0,1.0,0.0,0.0,1.0,0,100.0,62.0,5.0,1,1.0,0,1.0,0,1.0,0,1.0,0,1.0
125,'G4',0.0,0.0,30.0,-20.7,1.02,0,100.0,0.0,1.0,0.0,0.0,1.0,0,100.0,62.0,5.0,1,1.0,0,1.0,0,1.0,0,1.0,0,1.0
126,'G5',0.0,0.0,30.0,-20.7,1.02,0,100.0,0.0,1.0,0.0,0.0,1.0,0,100.0,62.0,5.0,1,1.0,0,1.0,0,1.0,0,1.0,0,1.0
127,'G6',0.0,0.0,30.0,-20.7,1.02,0,100.0,0.0,1.0,0.0,0.0,1.0,0,100.0,62.0,5.0,1,1.0,0,1.0,0,1.0,0,1.0,0,1.0
128,'G7',0.0,0.0,30.0,-20.7,1.02,0,100.0,0.0,1.0,0.0,0.0,1.0,0,100.0,62.0,5.0,1,1.0,0,1.0,0,1.0,0,1.0,0,1.0
129,'G8',0.0,0.0,30.0,-20.7,1.02,0,100.0,0.0,1.0,0.0,0.0,1.0,0,100.0,62.0,5.0,1,1.0,0,1.0,0,1.0,0,1.0,0,1.0
130,'G9',0.0,0.0,30.0,-20.7,1.02,0,100.0,0.0,1.0,0.0,0.0,1.0,0,100.0,62.0,5.0,1,1.0,0,1.0,0,1.0,0,1.0,0,1.0
131,'10',188.126,15.521,116.6,-62.7,1.02,0,100.0,0.0,1.0,0.0,0.0,1.0,1,100.0,188.2,84.69,1,1.0,0,1.0,0,1.0,0,1.0,0,1.0
132,'11',0.0,0.0,96.8,-52.1,1.02,0,100.0,0.0,1.0,0.0,0.0,1.0,0,100.0,156.2,56.23,1,1.0,0,1.0,0,1.0,0,1.0,0,1.0
133,'G1',435.928,39.861,223.4,-145.4,1.02,0,100.0,0.0,1.0,0.0,0.0,1.0,1,100.0,436.1,295.0,1,1.0,0,1.0,0,1.0,0,1.0,0,1.0
134,'G2',435.928,39.861,223.4,-145.4,1.02,0,100.0,0.0,1.0,0.0,0.0,1.0,1,100.0,436.1,295.0,1,1.0,0,1.0,0,1.0,0,1.0,0,1.0
135,'G3',188.126,15.521,116.6,-62.7,1.02,0,100.0,0.0,1.0,0.0,0.0,1.0,1,100.0,188.2,84.69,1,1.0,0,1.0,0,1.0,0,1.0,0,1.0
136,'G4',188.126,15.521,116.6,-62.7,1.02,0,100.0,0.0,1.0,0.0,0.0,1.0,1,100.0,188.2,84.69,1,1.0,0,1.0,0,1.0,0,1.0,0,1.0
137,'G5',188.126,15.521,116.6,-62.7,1.02,0,100.0,0.0,1.0,0.0,0.0,1.0,1,100.0,188.2,84.69,1,1.0,0,1.0,0,1.0,0,1.0,0,1.0
138,'G6',188.126,15.521,116.6,-62.7,1.02,0,100.0,0.0,1.0,0.0,0.0,1.0,1,100.0,188.2,84.69,1,1.0,0,1.0,0,1.0,0,1.0,0,1.0
139,'G7',188.126,15.521,116.6,-62.7,1.02,0,100.0,0.0,1.0,0.0,0.0,1.0,1,100.0,188.2,84.69,1,1.0,0,1.0,0,1.0,0,1.0,0,1.0
140,'G8',188.126,15.521,116.6,-62.7,1.02,0,100.0,0.0,1.0,0.0,0.0,1.0,1,100.0,188.2,84.69,1,1.0,0,1.0,0,1.0,0,1.0,0,1.0
141,'G9',188.126,15.521,116.6,-62.7,1.02,0,100.0,0.0,1.0,0.0,0.0,1.0,1,100.0,188.2,84.69,1,1.0,0,1.0,0,1.0,0,1.0,0,1.0
142,'G1',0.0,0.0,442.3,-287.8,1.02,0,100.0,0.0,1.0,0.0,0.0,1.0,0,100.0,863.3,190.0,1,1.0,0,1.0,0,1.0,0,1.0,0,1.0
143,'G2',861.203,47.575,442.3,-287.8,1.02,0,100.0,0.0,1.0,0.0,0.0,1.0,1,100.0,863.3,190.0,1,1.0,0,1.0,0,1.0,0,1.0,0,1.0
144,'G3',470.653,24.254,292.4,-157.3,1.02,0,100.0,0.0,1.0,0.0,0.0,1.0,1,100.0,471.8,310.0,1,1.0,0,1.0,0,1.0,0,1.0,0,1.0
145,'G4',0.0,0.0,116.6,-62.7,1.02,0,100.0,0.0,1.0,0.0,0.0,1.0,0,100.0,188.2,84.69,1,1.0,0,1.0,0,1.0,0,1.0,0,1.0
146,'G5',187.743,7.64,116.6,-62.7,1.02,0,100.0,0.0,1.0,0.0,0.0,1.0,1,100.0,188.2,84.69,1,1.0,0,1.0,0,1.0,0,1.0,0,1.0
147,'G6',0.0,0.0,116.6,-62.7,1.02,0,100.0,0.0,1.0,0.0,0.0,1.0,0,100.0,188.2,84.69,1,1.0,0,1.0,0,1.0,0,1.0,0,1.0
148,'G7',187.743,7.64,116.6,-62.7,1.02,0,100.0,0.0,1.0,0.0,0.0,1.0,1,100.0,188.2,84.69,1,1.0,0,1.0,0,1.0,0,1.0,0,1.0
149,'10',0.0,0.0,153.0,-68.0,1.01,0,100.0,0.0,1.0,0.0,0.0,1.0,0,100.0,204.0,143.0,1,1.0,0,1.0,0,1.0,0,1.0,0,1.0
150,'11',0.0,0.0,153.0,-68.0,1.01,0,100.0,0.0,1.0,0.0,0.0,1.0,0,100.0,204.0,143.0,1,1.0,0,1.0,0,1.0,0,1.0,0,1.0
151,'12',203.92,0.725,153.0,-68.0,1.01,0,100.0,0.0,1.0,0.0,0.0,1.0,1,100.0,204.0,143.0,1,1.0,0,1.0,0,1.0,0,1.0,0,1.0
152,'13',0.0,0.0,153.0,-68.0,1.01,0,100.0,0.0,1.0,0.0,0.0,1.0,0,100.0,204.0,143.0,1,1.0,0,1.0,0,1.0,0,1.0,0,1.0
153,'G1',586.034,-14.102,478.8,-311.5,1.01,0,100.0,0.0,1.0,0.0,0.0,1.0,1,100.0,934.5,190.0,1,1.0,0,1.0,0,1.0,0,1.0,0,1.0
154,'G2',0.0,0.0,478.8,-311.5,1.01,0,100.0,0.0,1.0,0.0,0.0,1.0,0,100.0,934.5,190.0,1,1.0,0,1.0,0,1.0,0,1.0,0,1.0
155,'G3',471.514,7.944,292.3,-157.2,1.01,0,100.0,0.0,1.0,0.0,0.0,1.0,1,100.0,471.7,320.0,1,1.0,0,1.0,0,1.0,0,1.0,0,1.0
156,'G4',0.0,0.0,116.6,-62.7,1.01,0,100.0,0.0,1.0,0.0,0.0,1.0,0,100.0,188.2,84.69,1,1.0,0,1.0,0,1.0,0,1.0,0,1.0
157,'G5',188.126,0.719,116.6,-62.7,1.01,0,100.0,0.0,1.0,0.0,0.0,1.0,1,100.0,188.2,84.69,1,1.0,0,1.0,0,1.0,0,1.0,0,1.0
158,'G6',188.126,0.719,116.6,-62.7,1.01,0,100.0,0.0,1.0,0.0,0.0,1.0,1,100.0,188.2,84.69,1,1.0,0,1.0,0,1.0,0,1.0,0,1.0
159,'G7',0.0,0.0,116.6,-62.7,1.01,0,100.0,0.0,1.0,0.0,0.0,1.0,0,100.0,188.2,84.69,1,1.0,0,1.0,0,1.0,0,1.0,0,1.0
160,'G8',203.92,0.725,153.0,-68.0,1.01,0,100.0,0.0,1.0,0.0,0.0,1.0,1,100.0,204.0,143.0,1,1.0,0,1.0,0,1.0,0,1.0,0,1.0
161,'G9',0.0,0.0,153.0,-68.0,1.01,0,100.0,0.0,1.0,0.0,0.0,1.0,0,100.0,204.0,143.0,1,1.0,0,1.0,0,1.0,0,1.0,0,1.0
162,'G1',758.153,36.026,368.1,-253.3,1.02,0,100.0,0.0,1.0,0.0,0.0,1.0,1,100.0,760.0,424.0,1,1.0,0,1.0,0,1.0,0,1.0,0,1.0
163,'G3',470.853,20.036,292.5,-157.3,1.02,0,100.0,0.0,1.0,0.0,0.0,1.0,1,100.0,472.0,310.0,1,1.0,0,1.0,0,1.0,0,1.0,0,1.0
164,'G4',0.0,0.0,249.1,-134.0,1.02,0,100.0,0.0,1.0,0.0,0.0,1.0,0,100.0,402.0,90.0,1,1.0,0,1.0,0,1.0,0,1.0,0,1.0
165,'G5',0.0,0.0,249.1,-134.0,1.02,0,100.0,0.0,1.0,0.0,0.0,1.0,0,100.0,402.0,90.0,1,1.0,0,1.0,0,1.0,0,1.0,0,1.0
166,'G6',187.543,5.828,116.5,-62.7,1.02,0,100.0,0.0,1.0,0.0,0.0,1.0,1,100.0,188.0,84.6,1,1.0,0,1.0,0,1.0,0,1.0,0,1.0
167,'G7',187.543,5.828,116.5,-62.7,1.02,0,100.0,0.0,1.0,0.0,0.0,1.0,1,100.0,188.0,84.6,1,1.0,0,1.0,0,1.0,0,1.0,0,1.0
168,'G8',187.543,5.828,116.5,-62.7,1.02,0,100.0,0.0,1.0,0.0,0.0,1.0,1,100.0,188.0,84.6,1,1.0,0,1.0,0,1.0,0,1.0,0,1.0
169,'G9',187.543,5.828,116.5,-62.7,1.02,0,100.0,0.0,1.0,0.0,0.0,1.0,1,100.0,188.0,84.6,1,1.0,0,1.0,0,1.0,0,1.0,0,1.0
170,'10',34.117,0.019,21.2,-11.4,1.02,0,100.0,0.0,1.0,0.0,0.0,1.0,1,100.0,34.2,5.0,1,1.0,0,1.0,0,1.0,0,1.0,0,1.0
171,'11',34.117,0.019,21.2,-11.4,1.02,0,100.0,0.0,1.0,0.0,0.0,1.0,1,100.0,34.2,5.0,1,1.0,0,1.0,0,1.0,0,1.0,0,1.0
172,'12',34.117,0.019,21.2,-11.4,1.02,0,100.0,0.0,1.0,0.0,0.0,1.0,1,100.0,34.2,5.0,1,1.0,0,1.0,0,1.0,0,1.0,0,1.0
173,'13',34.117,0.019,21.2,-11.4,1.02,0,100.0,0.0,1.0,0.0,0.0,1.0,1,100.0,34.2,5.0,1,1.0,0,1.0,0,1.0,0,1.0,0,1.0
174,'14',34.117,0.019,21.2,-11.4,1.02,0,100.0,0.0,1.0,0.0,0.0,1.0,1,100.0,34.2,5.0,1,1.0,0,1.0,0,1.0,0,1.0,0,1.0
175,'15',34.117,0.019,21.2,-11.4,1.02,0,100.0,0.0,1.0,0.0,0.0,1.0,1,100.0,34.2,5.0,1,1.0,0,1.0,0,1.0,0,1.0,0,1.0
176,'16',34.117,0.019,21.2,-11.4,1.02,0,100.0,0.0,1.0,0.0,0.0,1.0,1,100.0,34.2,5.0,1,1.0,0,1.0,0,1.0,0,1.0,0,1.0
177,'17',34.117,0.019,21.2,-11.4,1.02,0,100.0,0.0,1.0,0.0,0.0,1.0,1,100.0,34.2,5.0,1,1.0,0,1.0,0,1.0,0,1.0,0,1.0
178,'18',34.117,0.019,21.2,-11.4,1.02,0,100.0,0.0,1.0,0.0,0.0,1.0,1,100.0,34.2,5.0,1,1.0,0,1.0,0,1.0,0,1.0,0,1.0
179,'19',34.117,0.019,21.2,-11.4,1.02,0,100.0,0.0,1.0,0.0,0.0,1.0,1,100.0,34.2,5.0,1,1.0,0,1.0,0,1.0,0,1.0,0,1.0
180,'20',34.117,0.019,21.2,-11.4,1.02,0,100.0,0.0,1.0,0.0,0.0,1.0,1,100.0,34.2,5.0,1,1.0,0,1.0,0,1.0,0,1.0,0,1.0
181,'21',34.117,0.019,21.2,-11.4,1.02,0,100.0,0.0,1.0,0.0,0.0,1.0,1,100.0,34.2,5.0,1,1.0,0,1.0,0,1.0,0,1.0,0,1.0
182,'22',34.117,0.019,21.2,-11.4,1.02,0,100.0,0.0,1.0,0.0,0.0,1.0,1,100.0,34.2,5.0,1,1.0,0,1.0,0,1.0,0,1.0,0,1.0
183,'23',34.117,0.019,21.2,-11.4,1.02,0,100.0,0.0,1.0,0.0,0.0,1.0,1,100.0,34.2,5.0,1,1.0,0,1.0,0,1.0,0,1.0,0,1.0
184,'24',34.117,0.019,25.7,-11.4,1.02,0,100.0,0.0,1.0,0.0,0.0,1.0,1,100.0,34.2,5.0,1,1.0,0,1.0,0,1.0,0,1.0,0,1.0
185,'25',150.833,1.503,93.7,-50.4,1.02,0,100.0,0.0,1.0,0.0,0.0,1.0,1,100.0,151.2,48.32,1,1.0,0,1.0,0,1.0,0,1.0,0,1.0
186,'26',150.833,1.503,93.7,-50.4,1.02,0,100.0,0.0,1.0,0.0,0.0,1.0,1,100.0,151.2,48.32,1,1.0,0,1.0,0,1.0,0,1.0,0,1.0
187,'27',184.55,2.165,138.8,-61.7,1.02,0,100.0,0.0,1.0,0.0,0.0,1.0,1,100.0,185.0,155.0,1,1.0,0,1.0,0,1.0,0,1.0,0,1.0
188,'28',184.55,2.165,138.8,-61.7,1.02,0,100.0,0.0,1.0,0.0,0.0,1.0,1,100.0,185.0,155.0,1,1.0,0,1.0,0,1.0,0,1.0,0,1.0
189,'29',184.55,2.165,138.8,-61.7,1.02,0,100.0,0.0,1.0,0.0,0.0,1.0,1,100.0,185.0,155.0,1,1.0,0,1.0,0,1.0,0,1.0,0,1.0
190,'30',184.55,2.165,138.8,-61.7,1.02,0,100.0,0.0,1.0,0.0,0.0,1.0,1,100.0,185.0,155.0,1,1.0,0,1.0,0,1.0,0,1.0,0,1.0
191,'G1',34.117,0.019,21.2,-11.4,1.02,0,100.0,0.0,1.0,0.0,0.0,1.0,1,100.0,34.2,5.0,1,1.0,0,1.0,0,1.0,0,1.0,0,1.0
192,'G2',34.117,0.019,21.2,-11.4,1.02,0,100.0,0.0,1.0,0.0,0.0,1.0,1,100.0,34.2,5.0,1,1.0,0,1.0,0,1.0,0,1.0,0,1.0
193,'G3',34.117,0.019,21.2,-11.4,1.02,0,100.0,0.0,1.0,0.0,0.0,1.0,1,100.0,34.2,5.0,1,1.0,0,1.0,0,1.0,0,1.0,0,1.0
194,'G4',34.117,0.019,21.2,-11.4,1.02,0,100.0,0.0,1.0,0.0,0.0,1.0,1,100.0,34.2,5.0,1,1.0,0,1.0,0,1.0,0,1.0,0,1.0
195,'G5',34.117,0.019,21.2,-11.4,1.02,0,100.0,0.0,1.0,0.0,0.0,1.0,1,100.0,34.2,5.0,1,1.0,0,1.0,0,1.0,0,1.0,0,1.0
196,'G6',34.117,0.019,21.2,-11.4,1.02,0,100.0,0.0,1.0,0.0,0.0,1.0,1,100.0,34.2,5.0,1,1.0,0,1.0,0,1.0,0,1.0,0,1.0
197,'G7',34.117,0.019,21.2,-11.4,1.02,0,100.0,0.0,1.0,0.0,0.0,1.0,1,100.0,34.2,5.0,1,1.0,0,1.0,0,1.0,0,1.0,0,1.0
198,'G8',34.117,0.019,21.2,-11.4,1.02,0,100.0,0.0,1.0,0.0,0.0,1.0,1,100.0,34.2,5.0,1,1.0,0,1.0,0,1.0,0,1.0,0,1.0
199,'G9',34.117,0.019,21.2,-11.4,1.02,0,100.0,0.0,1.0,0.0,0.0,1.0,1,100.0,34.2,5.0,1,1.0,0,1.0,0,1.0,0,1.0,0,1.0
200,'G1',0.0,0.0,89.6,-61.7,1.02,0,100.0,0.0,1.0,0.0,0.0,1.0,0,100.0,185.0,65.0,1,1.0,0,1.0,0,1.0,0,1.0,0,1.0
...
0 / END OF GENERATOR DATA BEGIN BRANCH DATA
27810,29514,'L1',0.00047,0.00585,0.40091,1725.0,1811.2,1897.5,0.0,0.0,0.0,0.0,1,1,23.63,1,1.0,0,1.0,0,1.0,0,1.0
27810,30911,'L1',0.0007,0.01005,0.69505,1893.0,1987.6,2082.3,0.0,0.0,0.0,0.0,1,1,40.73,1,1.0,0,1.0,0,1.0,0,1.0
27811,28131,'L1',0.00035,0.00857,0.63202,2783.0,2922.2,3061.3,0.0,0.0,0.0,0.0,1,1,36.0,1,1.0,0,1.0,0,1.0,0,1.0
27811,28681,'L1',0.00024,0.00586,0.69888,4112.0,4317.6,4523.2,0.0,0.0,0.0,0.0,1,1,31.3,1,1.0,0,1.0,0,1.0,0,1.0
27811,30803,'L1',0.00062,0.01611,1.476,3531.0,3707.6,3884.1,0.0,0.0,0.0,0.0,1,1,75.45,1,1.0,0,1.0,0,1.0,0,1.0
27812,28820,'L1',1e-05,0.00011,0.0086,1725.0,1811.2,1897.5,0.0,0.0,0.0,0.0,1,1,0.49,1,1.0,0,1.0,0,1.0,0,1.0
27813,31215,'L1',0.00057,0.00574,0.01302,668.0,668.0,668.0,0.0,0.0,0.0,0.0,1,1,4.19,1,1.0,0,1.0,0,1.0,0,1.0
27813,31215,'L2',0.00057,0.00574,0.01302,668.0,668.0,668.0,0.0,0.0,0.0,0.0,1,1,4.19,1,1.0,0,1.0,0,1.0,0,1.0
27813,31522,'L1',0.00024,0.00284,0.01009,794.0,833.7,873.4,0.0,0.0,0.0,0.0,1,1,2.62,1,1.0,0,1.0,0,1.0,0,1.0
27814,28178,'L1',0.00079,0.01028,0.6569,1725.0,1811.2,1897.5,0.0,0.0,0.0,0.0,1,1,40.2,1,1.0,0,1.0,0,1.0,0,1.0
27814,30713,'L1',0.00041,0.00516,0.35337,1725.0,1811.2,1897.5,0.0,0.0,0.0,0.0,1,1,20.9,1,1.0,0,1.0,0,1.0,0,1.0
27815,29434,'L1',4e-05,0.0005,0.03289,1725.0,1811.2,1897.5,0.0,0.0,0.0,0.0,1,1,1.99,1,1.0,0,1.0,0,1.0,0,1.0
27815,29867,'L1',0.00054,0.00693,0.44228,1725.0,1811.2,1897.5,0.0,0.0,0.0,0.0,1,1,27.01,1,1.0,0,1.0,0,1.0,0,1.0
27816,28788,'L1',0.00045,0.01093,1.057,3786.0,3975.3,4164.6,0.0,0.0,0.0,0.0,1,1,52.71,1,1.0,0,1.0,0,1.0,0,1.0
27816,29338,'L1',0.00057,0.01577,1.1868,3031.0,3182.6,3334.1,0.0,0.0,0.0,0.0,1,1,66.64,1,1.0,0,1.0,0,1.0,0,1.0
27817,28145,'L1',0.00029,0.00493,0.01743,1023.0,1074.1,1125.3,0.0,0.0,0.0,0.0,1,1,4.52,1,1.0,0,1.0,0,1.0,0,1.0
27817,28148,'L1',8e-05,0.00085,0.00174,491.0,515.5,540.1,0.0,0.0,0.0,0.0,1,1,0.59,1,1.0,0,1.0,0,1.0,0,1.0
27817,28148,'L2',8e-05,0.00085,0.00174,491.0,515.5,540.1,0.0,0.0,0.0,0.0,1,1,0.59,1,1.0,0,1.0,0,1.0,0,1.0
27817,28151,'L1',0.00015,0.00227,0.0053,647.0,679.3,711.7,0.0,0.0,0.0,0.0,1,1,1.68,1,1.0,0,1.0,0,1.0,0,1.0
27818,27840,'L1',6e-05,0.00083,0.05317,1725.0,1811.2,1897.5,0.0,0.0,0.0,0.0,1,1,3.26,1,1.0,0,1.0,0,1.0,0,1.0
27818,31179,'L1',0.00027,0.00353,0.22554,1725.0,1811.2,1897.5,0.0,0.0,0.0,0.0,1,1,13.78,1,1.0,0,1.0,0,1.0,0,1.0
27819,29401,'L1',0.00534,0.03564,0.06721,366.0,384.3,402.6,0.0,0.0,0.0,0.0,1,1,23.79,1,1.0,0,1.0,0,1.0,0,1.0
27819,31589,'L1',0.00016,0.00196,0.00403,541.0,568.1,595.1,0.0,0.0,0.0,0.0,1,1,1.37,1,1.0,0,1.0,0,1.0,0,1.0
27820,30914,'L1',0.0002,0.00155,0.00555,635.0,666.8,698.5,0.0,0.0,0.0,0.0,1,1,1.43,1,1.0,0,1.0,0,1.0,0,1.0
27821,28329,'L1',0.00032,0.00766,0.62372,2811.0,2951.5,3092.1,0.0,0.0,0.0,0.0,1,1,33.69,1,1.0,0,1.0,0,1.0,0,1.0
27821,31178,'L1',0.0003,0.00378,0.25938,1725.0,1811.2,1897.5,0.0,0.0,0.0,0.0,1,1,15.34,1,1.0,0,1.0,0,1.0,0,1.0
27821,31179,'L1',0.00036,0.00451,0.30894,1725.0,1811.2,1897.5,0.0,0.0,0.0,0.0,1,1,18.25,1,1.0,0,1.0,0,1.0,0,1.0
27822,28820,'L1',1e-05,0.00026,0.02251,2720.0,2856.0,2992.0,0.0,0.0,0.0,0.0,1,1,1.18,1,1.0,0,1.0,0,1.0,0,1.0
27822,28963,'L1',0.00011,0.00191,0.12492,2056.0,2158.8,2261.6,0.0,0.0,0.0,0.0,1,1,7.54,1,1.0,0,1.0,0,1.0,0,1.0
27823,27903,'L1',0.00053,0.00241,0.00064,175.0,183.7,192.5,0.0,0.0,0.0,0.0,1,1,0.61,1,1.0,0,1.0,0,1.0,0,1.0
27823,28822,'L1',0.00086,0.00552,0.00145,219.0,229.9,240.9,0.0,0.0,0.0,0.0,1,1,1.37,1,1.0,0,1.0,0,1.0,0,1.0
27823,85084,'L1',0.00153,0.01494,0.00419,284.0,298.2,312.4,0.0,0.0,0.0,0.0,1,1,3.83,1,1.0,0,1.0,0,1.0,0,1.0
27823,85095,'L1',0.00235,0.0094,0.00237,241.0,241.0,313.0,0.0,0.0,0.0,0.0,1,1,2.29,1,1.0,0,1.0,0,1.0,0,1.0
27824,28042,'L1',0.00374,0.02073,0.0063,205.0,215.2,225.5,0.0,0.0,0.0,0.0,1,1,5.55,1,1.0,0,1.0,0,1.0,0,1.0
27824,28057,'L1',0.00089,0.01079,0.00356,347.0,364.4,381.7,0.0,0.0,0.0,0.0,1,1,3.0,1,1.0,0,1.0,0,1.0,0,1.0
27824,28058,'L1',0.0041,0.0206,0.00536,185.0,194.2,203.5,0.0,0.0,0.0,0.0,1,1,5.12,1,1.0,0,1.0,0,1.0,0,1.0
27824,28059,'L1',0.00941,0.04123,0.01419,185.0,194.2,203.5,0.0,0.0,0.0,0.0,1,1,11.74,1,1.0,0,1.0,0,1.0,0,1.0
27824,28062,'L1',0.00233,0.00988,0.00222,241.0,241.0,313.0,0.0,0.0,0.0,0.0,1,1,2.28,1,1.0,0,1.0,0,1.0,0,1.0
27824,28071,'L1',0.00448,0.02883,0.00756,219.0,229.9,240.9,0.0,0.0,0.0,0.0,1,1,7.16,1,1.0,0,1.0,0,1.0,0,1.0
27825,29511,'L1',0.00362,0.02352,0.04686,366.0,384.3,402.6,0.0,0.0,0.0,0.0,1,1,16.08,1,1.0,0,1.0,0,1.0,0,1.0
27825,31814,'L1',0.00087,0.00578,0.01089,366.0,384.3,402.6,0.0,0.0,0.0,0.0,1,1,3.84,1,1.0,0,1.0,0,1.0,0,1.0
27826,29246,'L1',0.00096,0.00638,0.01202,366.0,384.3,402.6,0.0,0.0,0.0,0.0,1,1,4.26,1,1.0,0,1.0,0,1.0,0,1.0
27826,29479,'L1',0.00132,0.01296,0.02761,473.0,496.6,520.3,0.0,0.0,0.0,0.0,1,1,9.15,1,1.0,0,1.0,0,1.0,0,1.0
27826,31397,'L1',0.00078,0.0083,0.01688,491.0,515.5,540.1,0.0,0.0,0.0,0.0,1,1,5.75,1,1.0,0,1.0,0,1.0,0,1.0
27826,31397,'L2',0.00078,0.0083,0.01688,491.0,515.5,540.1,0.0,0.0,0.0,0.0,1,1,5.75,1,1.0,0,1.0,0,1.0,0,1.0
27826,31401,'L1',0.00049,0.00569,0.02021,794.0,833.7,873.4,0.0,0.0,0.0,0.0,1,1,5.24,1,1.0,0,1.0,0,1.0,0,1.0
27827,30856,'L1',0.00158,0.01446,0.05707,731.0,767.5,804.1,0.0,0.0,0.0,0.0,1,1,14.04,1,1.0,0,1.0,0,1.0,0,1.0
27828,29017,'L1',0.00537,0.02219,0.00525,241.0,241.0,313.0,0.0,0.0,0.0,0.0,1,1,5.25,1,1.0,0,1.0,0,1.0,0,1.0
27828,31832,'L1',0.00277,0.0109,0.00285,241.0,241.0,313.0,0.0,0.0,0.0,0.0,1,1,2.71,1,1.0,0,1.0,0,1.0,0,1.0
27828,31833,'L1',0.00068,0.0054,0.00133,238.0,249.9,261.8,0.0,0.0,0.0,0.0,1,1,1.3,1,1.0,0,1.0,0,1.0,0,1.0
27829,28780,'L1',0.00371,0.03929,0.01166,307.0,322.4,337.7,0.0,0.0,0.0,0.0,1,1,10.37,1,1.0,0,1.0,0,1.0,0,1.0
27829,28781,'L1',0.00129,0.01198,0.00371,284.0,298.2,312.4,0.0,0.0,0.0,0.0,1,1,3.24,1,1.0,0,1.0,0,1.0,0,1.0
27829,28787,'L1',0.0025,0.03529,0.01207,388.0,407.4,426.8,0.0,0.0,0.0,0.0,1,1,9.97,1,1.0,0,1.0,0,1.0,0,1.0
27830,27859,'L1',1e-05,9e-05,0.00655,1725.0,1811.2,1897.5,0.0,0.0,0.0,0.0,1,1,0.37,1,1.0,0,1.0,0,1.0,0,1.0
27830,31720,'L1',0.00014,0.00186,0.11851,1725.0,1811.2,1897.5,0.0,0.0,0.0,0.0,1,1,7.24,1,1.0,0,1.0,0,1.0,0,1.0
27831,28788,'L1',0.00129,0.02325,1.6663,2226.0,2337.3,2448.6,0.0,0.0,0.0,0.0,1,1,96.2,1,1.0,0,1.0,0,1.0,0,1.0
27831,29790,'L1',6e-05,0.00077,0.04919,1725.0,1811.2,1897.5,0.0,0.0,0.0,0.0,1,1,3.02,1,1.0,0,1.0,0,1.0,0,1.0
27831,30570,'L1',0.00167,0.02878,2.2775,2226.0,2337.3,2448.6,0.0,0.0,0.0,0.0,1,1,125.4,1,1.0,0,1.0,0,1.0,0,1.0
27832,28146,'L1',0.00027,0.00421,0.00893,647.0,679.3,711.7,0.0,0.0,0.0,0.0,1,1,2.96,1,1.0,0,1.0,0,1.0,0,1.0
27832,28154,'L1',0.00038,0.00255,0.0047,366.0,384.3,402.6,0.0,0.0,0.0,0.0,1,1,1.69,1,1.0,0,1.0,0,1.0,0,1.0
27832,28162,'L1',0.00083,0.00788,0.014,435.0,456.8,478.5,0.0,0.0,0.0,0.0,1,1,5.1,1,1.0,0,1.0,0,1.0,0,1.0
27833,29084,'L1',0.00634,0.03779,0.00994,205.0,215.2,225.5,0.0,0.0,0.0,0.0,1,1,9.42,1,1.0,0,1.0,0,1.0,0,1.0
27833,31719,'L1',0.00292,0.02189,0.00534,230.0,241.5,253.0,0.0,0.0,0.0,0.0,1,1,5.25,1,1.0,0,1.0,0,1.0,0,1.0
27833,84705,'L1',0.00278,0.01296,0.00321,175.0,183.7,192.5,0.0,0.0,0.0,0.0,1,1,3.14,1,1.0,0,1.0,0,1.0,0,1.0
27834,27848,'L1',0.00017,0.00207,0.14211,1725.0,1811.2,1897.5,0.0,0.0,0.0,0.0,1,1,8.4,1,1.0,0,1.0,0,1.0,0,1.0
27834,31720,'L1',3e-05,0.00039,0.02651,1997.0,1997.0,1997.0,0.0,0.0,0.0,0.0,1,1,1.56,1,1.0,0,1.0,0,1.0,0,1.0
27835,27850,'L1',2e-05,0.00018,0.0006,794.0,833.7,873.4,0.0,0.0,0.0,0.0,1,1,0.16,1,1.0,0,1.0,0,1.0,0,1.0
27836,29223,'L1',2e-05,0.00062,0.04616,3031.0,3182.6,3334.1,0.0,0.0,0.0,0.0,1,1,2.6,1,1.0,0,1.0,0,1.0,0,1.0
27836,29430,'L1',3e-05,0.00059,0.04213,2226.0,2337.3,2448.6,0.0,0.0,0.0,0.0,1,1,2.44,1,1.0,0,1.0,0,1.0,0,1.0
27837,28730,'L1',0.00056,0.00929,0.60748,2056.0,2158.8,2261.6,0.0,0.0,0.0,0.0,1,1,36.56,1,1.0,0,1.0,0,1.0,0,1.0
27837,29589,'L1',4e-05,0.00046,0.02922,1725.0,1811.2,1897.5,0.0,0.0,0.0,0.0,1,1,1.79,1,1.0,0,1.0,0,1.0,0,1.0
27837,29601,'L1',0.00012,0.00146,0.10951,1725.0,1811.2,1897.5,0.0,0.0,0.0,0.0,1,1,6.17,1,1.0,0,1.0,0,1.0,0,1.0
27838,27855,'L1',5e-05,0.00089,0.08653,2720.0,2856.0,2992.0,0.0,0.0,0.0,0.0,1,1,4.29,1,1.0,0,1.0,0,1.0,0,1.0
27838,31950,'L1',2e-05,0.00053,0.04341,3031.0,3182.6,3334.1,0.0,0.0,0.0,0.0,1,1,2.33,1,1.0,0,1.0,0,1.0,0,1.0
27839,29434,'L1',0.00029,0.00381,0.24301,1725.0,1811.2,1897.5,0.0,0.0,0.0,0.0,1,1,14.84,1,1.0,0,1.0,0,1.0,0,1.0
27839,29911,'L1',0.00016,0.0023,0.15895,1893.0,1987.6,2082.3,0.0,0.0,0.0,0.0,1,1,9.34,1,1.0,0,1.0,0,1.0,0,1.0
27839,31720,'L1',0.00049,0.00611,0.4187,1725.0,1811.2,1897.5,0.0,0.0,0.0,0.0,1,1,24.77,1,1.0,0,1.0,0,1.0,0,1.0
27839,31929,'L1',0.00076,0.00913,0.68575,1725.0,1811.2,1897.5,0.0,0.0,0.0,0.0,1,1,38.58,1,1.0,0,1.0,0,1.0,0,1.0
27840,29514,'L1',0.00078,0.01091,0.69704,1813.0,1903.7,1994.3,0.0,0.0,0.0,0.0,1,1,42.48,1,1.0,0,1.0,0,1.0,0,1.0
27840,31178,'L1',0.00036,0.00714,0.58134,2840.0,2982.0,3124.0,0.0,0.0,0.0,0.0,1,1,31.47,1,1.0,0,1.0,0,1.0,0,1.0
27840,31179,'L1',0.00027,0.00352,0.22475,1725.0,1811.2,1897.5,0.0,0.0,0.0,0.0,1,1,13.72,1,1.0,0,1.0,0,1.0,0,1.0
27841,30522,'L1',5e-05,0.00124,0.10212,3031.0,3182.6,3334.1,0.0,0.0,0.0,0.0,1,1,5.49,1,1.0,0,1.0,0,1.0,0,1.0
27841,30524,'L1',0.00039,0.00649,0.42441,2056.0,2158.8,2261.6,0.0,0.0,0.0,0.0,1,1,25.57,1,1.0,0,1.0,0,1.0,0,1.0
27842,28476,'L1',3e-05,0.00033,0.02464,1725.0,1811.2,1897.5,0.0,0.0,0.0,0.0,1,1,1.39,1,1.0,0,1.0,0,1.0,0,1.0
27842,28520,'L1',0.0001,0.00115,0.08645,1725.0,1811.2,1897.5,0.0,0.0,0.0,0.0,1,1,4.89,1,1.0,0,1.0,0,1.0,0,1.0
27843,28791,'L1',0.00022,0.00216,0.0046,473.0,496.6,520.3,0.0,0.0,0.0,0.0,1,1,1.53,1,1.0,0,1.0,0,1.0,0,1.0
27844,28842,'L1',0.00102,0.01233,0.02386,528.0,554.4,580.8,0.0,0.0,0.0,0.0,1,1,8.35,1,1.0,0,1.0,0,1.0,0,1.0
27844,28842,'L2',0.00102,0.01233,0.02386,528.0,554.4,580.8,0.0,0.0,0.0,0.0,1,1,8.35,1,1.0,0,1.0,0,1.0,0,1.0
27844,28962,'L1',0.00059,0.00623,0.01172,473.0,496.6,520.3,0.0,0.0,0.0,0.0,1,1,4.14,1,1.0,0,1.0,0,1.0,0,1.0
27845,29594,'L1',0.00121,0.0152,1.0455,1725.0,1811.2,1897.5,0.0,0.0,0.0,0.0,1,1,61.5,1,1.0,0,1.0,0,1.0,0,1.0
27845,31720,'L1',0.00031,0.00401,0.25602,1725.0,1811.2,1897.5,0.0,0.0,0.0,0.0,1,1,15.63,1,1.0,0,1.0,0,1.0,0,1.0
27846,31941,'L1',0.00226,0.01651,0.00424,230.0,241.5,253.0,0.0,0.0,0.0,0.0,1,1,4.05,1,1.0,0,1.0,0,1.0,0,1.0
27846,31968,'L1',0.00689,0.05277,0.01414,238.0,249.9,261.8,0.0,0.0,0.0,0.0,1,1,13.25,1,1.0,0,1.0,0,1.0,0,1.0
27846,32151,'L1',0.00092,0.00659,0.00175,230.0,241.5,253.0,0.0,0.0,0.0,0.0,1,1,1.65,1,1.0,0,1.0,0,1.0,0,1.0
27846,32160,'L1',0.00063,0.00443,0.00122,230.0,241.5,253.0,0.0,0.0,0.0,0.0,1,1,1.12,1,1.0,0,1.0,0,1.0,0,1.0
27847,31271,'L1',9e-05,0.00109,0.00218,541.0,568.1,595.1,0.0,0.0,0.0,0.0,1,1,0.75,1,1.0,0,1.0,0,1.0,0,1.0
27848,29440,'L1',0.00028,0.00333,0.25308,1725.0,1811.2,1897.5,0.0,0.0,0.0,0.0,1,1,14.21,1,1.0,0,1.0,0,1.0,0,1.0
27848,30520,'L1',0.00199,0.03602,3.2555,2720.0,2856.0,2992.0,0.0,0.0,0.0,0.0,1,1,168.42,1,1.0,0,1.0,0,1.0,0,1.0
27849,28088,'L1',0.00201,0.0256,0.0484,541.0,568.1,595.1,0.0,0.0,0.0,0.0,1,1,17.17,1,1.0,0,1.0,0,1.0,0,1.0
27849,28112,'L1',0.00065,0.00685,0.02968,794.0,833.7,873.4,0.0,0.0,0.0,0.0,1,1,6.94,1,1.0,0,1.0,0,1.0,0,1.0
27849,28127,'L1',0.00126,0.01158,0.02204,435.0,456.8,478.5,0.0,0.0,0.0,0.0,1,1,7.76,1,1.0,0,1.0,0,1.0,0,1.0
27850,27854,'L1',1e-05,7e-05,0.00015,417.0,437.8,458.7,0.0,0.0,0.0,0.0,1,1,0.05,1,1.0,0,1.0,0,1.0,0,1.0
27850,31690,'L1',0.00203,0.01373,0.02528,366.0,384.3,402.6,0.0,0.0,0.0,0.0,1,1,9.03,1,1.0,0,1.0,0,1.0,0,1.0
27851,29103,'L1',0.00251,0.00909,0.00195,241.0,241.0,313.0,0.0,0.0,0.0,0.0,1,1,2.05,1,1.0,0,1.0,0,1.0,0,1.0
27851,85187,'L1',0.00187,0.00748,0.00188,241.0,241.0,313.0,0.0,0.0,0.0,0.0,1,1,1.82,1,1.0,0,1.0,0,1.0,0,1.0
27852,30544,'L1',0.00012,0.00095,0.00043,381.0,400.1,419.1,0.0,0.0,0.0,0.0,1,1,0.31,1,1.0,0,1.0,0,1.0,0,1.0
27853,30676,'L1',0.00186,0.00732,0.00191,241.0,241.0,313.0,0.0,0.0,0.0,0.0,1,1,1.82,1,1.0,0,1.0,0,1.0,0,1.0
27853,30776,'L1',0.00116,0.00471,0.00115,241.0,241.0,313.0,0.0,0.0,0.0,0.0,1,1,1.13,1,1.0,0,1.0,0,1.0,0,1.0
27853,30784,'L1',0.00159,0.00842,0.00213,191.0,200.6,210.1,0.0,0.0,0.0,0.0,1,1,2.05,1,1.0,0,1.0,0,1.0,0,1.0
27854,31591,'L1',0.00051,0.00529,0.01015,473.0,496.6,520.3,0.0,0.0,0.0,0.0,1,1,3.55,1,1.0,0,1.0,0,1.0,0,1.0
27855,28133,'L1',0.00042,0.0076,0.53962,2226.0,2337.3,2448.6,0.0,0.0,0.0,0.0,1,1,31.27,1,1.0,0,1.0,0,1.0,0,1.0
27856,27862,'L1',2e-05,0.00033,0.0231,2226.0,2337.3,2448.6,0.0,0.0,0.0,0.0,1,1,1.34,1,1.0,0,1.0,0,1.0,0,1.0
27856,31720,'L1',0.00067,0.01077,0.75762,2056.0,2158.8,2261.6,0.0,0.0,0.0,0.0,1,1,44.04,1,1.0,0,1.0,0,1.0,0,1.0
27857,28979,'L1',0.0005,0.00755,0.02713,946.0,993.3,1040.6,0.0,0.0,0.0,0.0,1,1,6.96,1,1.0,0,1.0,0,1.0,0,1.0
27857,31834,'L1',0.00053,0.00422,0.00813,397.0,416.8,436.7,0.0,0.0,0.0,0.0,1,1,2.84,1,1.0,0,1.0,0,1.0,0,1.0
27858,29030,'L1',0.00315,0.01404,0.00381,175.0,183.7,192.5,0.0,0.0,0.0,0.0,1,1,3.57,1,1.0,0,1.0,0,1.0,0,1.0
27859,29440,'L1',0.00024,0.00285,0.21388,1725.0,1811.2,1897.5,0.0,0.0,0.0,0.0,1,1,12.07,1,1.0,0,1.0,0,1.0,0,1.0
27860,31732,'L1',0.00037,0.00523,0.01002,579.0,608.0,636.9,0.0,0.0,0.0,0.0,1,1,3.52,1,1.0,0,1.0,0,1.0,0,1.0
27860,31733,'L1',0.00051,0.00555,0.01101,491.0,515.5,540.1,0.0,0.0,0.0,0.0,1,1,3.78,1,1.0,0,1.0,0,1.0,0,1.0
27860,31733,'L2',0.00051,0.00555,0.01101,491.0,515.5,540.1,0.0,0.0,0.0,0.0,1,1,3.78,1,1.0,0,1.0,0,1.0,0,1.0
27861,29393,'L1',0.01779,0.06201,0.01438,241.0,241.0,313.0,0.0,0.0,0.0,0.0,1,1,14.5,1,1.0,0,1.0,0,1.0,0,1.0
27861,31702,'L1',0.00313,0.01273,0.0031,289.0,289.0,373.0,0.0,0.0,0.0,0.0,1,1,3.06,1,1.0,0,1.0,0,1.0,0,1.0
27861,85966,'L1',0.00334,0.02076,0.00586,219.0,229.9,240.9,0.0,0.0,0.0,0.0,1,1,5.36,1,1.0,0,1.0,0,1.0,0,1.0
...